<?xml version="1.0" encoding="UTF-8"?>

<vehicleDefinitions xmlns="http://www.matsim.org/files/dtd" xmlns:xsi="http://www.w3.org/2001/XMLSchema-instance" xsi:schemaLocation="http://www.matsim.org/files/dtd http://www.matsim.org/files/dtd/vehicleDefinitions_v2.0.xsd">

	<vehicleType id="Bus">
		<attributes>
			<attribute name="accessTimeInSecondsPerPerson" class="java.lang.Double">0.5</attribute>
			<attribute name="doorOperationMode" class="org.matsim.vehicles.VehicleType$DoorOperationMode">serial</attribute>
			<attribute name="egressTimeInSecondsPerPerson" class="java.lang.Double">0.5</attribute>
		</attributes>
		<capacity seats="7" standingRoomInPersons="0">

		</capacity>
		<length meter="18.0"/>
		<width meter="2.5"/>
		<costInformation>

		</costInformation>
		<passengerCarEquivalents pce="2.8"/>
		<networkMode networkMode="bus"/>
		<flowEfficiencyFactor factor="1.0"/>
	</vehicleType>

	<vehicleType id="Ferry">
		<attributes>
			<attribute name="accessTimeInSecondsPerPerson" class="java.lang.Double">0.5</attribute>
			<attribute name="doorOperationMode" class="org.matsim.vehicles.VehicleType$DoorOperationMode">serial</attribute>
			<attribute name="egressTimeInSecondsPerPerson" class="java.lang.Double">0.5</attribute>
		</attributes>
		<capacity seats="25" standingRoomInPersons="0">

		</capacity>
		<length meter="50.0"/>
		<width meter="6.0"/>
		<costInformation>

		</costInformation>
		<passengerCarEquivalents pce="7.1"/>
		<networkMode networkMode="ferry"/>
		<flowEfficiencyFactor factor="1.0"/>
	</vehicleType>

	<vehicle id="veh_0_bus" type="Bus"/>
	<vehicle id="veh_10000_bus" type="Bus"/>
	<vehicle id="veh_10001_bus" type="Bus"/>
	<vehicle id="veh_10002_bus" type="Bus"/>
	<vehicle id="veh_10003_bus" type="Bus"/>
	<vehicle id="veh_10004_bus" type="Bus"/>
	<vehicle id="veh_10005_bus" type="Bus"/>
	<vehicle id="veh_10006_bus" type="Bus"/>
	<vehicle id="veh_10007_bus" type="Bus"/>
	<vehicle id="veh_10008_bus" type="Bus"/>
	<vehicle id="veh_10009_bus" type="Bus"/>
	<vehicle id="veh_1000_ferry" type="Ferry"/>
	<vehicle id="veh_10010_bus" type="Bus"/>
	<vehicle id="veh_10011_bus" type="Bus"/>
	<vehicle id="veh_10012_bus" type="Bus"/>
	<vehicle id="veh_10013_bus" type="Bus"/>
	<vehicle id="veh_10014_bus" type="Bus"/>
	<vehicle id="veh_10015_bus" type="Bus"/>
	<vehicle id="veh_10016_bus" type="Bus"/>
	<vehicle id="veh_10017_bus" type="Bus"/>
	<vehicle id="veh_10018_bus" type="Bus"/>
	<vehicle id="veh_10019_bus" type="Bus"/>
	<vehicle id="veh_1001_ferry" type="Ferry"/>
	<vehicle id="veh_10020_bus" type="Bus"/>
	<vehicle id="veh_10021_bus" type="Bus"/>
	<vehicle id="veh_10022_bus" type="Bus"/>
	<vehicle id="veh_10023_bus" type="Bus"/>
	<vehicle id="veh_10024_bus" type="Bus"/>
	<vehicle id="veh_10025_bus" type="Bus"/>
	<vehicle id="veh_10026_bus" type="Bus"/>
	<vehicle id="veh_10027_bus" type="Bus"/>
	<vehicle id="veh_10028_bus" type="Bus"/>
	<vehicle id="veh_10029_bus" type="Bus"/>
	<vehicle id="veh_1002_bus" type="Bus"/>
	<vehicle id="veh_10030_bus" type="Bus"/>
	<vehicle id="veh_10031_bus" type="Bus"/>
	<vehicle id="veh_10032_bus" type="Bus"/>
	<vehicle id="veh_10033_bus" type="Bus"/>
	<vehicle id="veh_10034_bus" type="Bus"/>
	<vehicle id="veh_10035_bus" type="Bus"/>
	<vehicle id="veh_10036_bus" type="Bus"/>
	<vehicle id="veh_10037_bus" type="Bus"/>
	<vehicle id="veh_10038_bus" type="Bus"/>
	<vehicle id="veh_10039_bus" type="Bus"/>
	<vehicle id="veh_1003_bus" type="Bus"/>
	<vehicle id="veh_10040_bus" type="Bus"/>
	<vehicle id="veh_10041_bus" type="Bus"/>
	<vehicle id="veh_10042_bus" type="Bus"/>
	<vehicle id="veh_10043_bus" type="Bus"/>
	<vehicle id="veh_10044_bus" type="Bus"/>
	<vehicle id="veh_10045_bus" type="Bus"/>
	<vehicle id="veh_10046_bus" type="Bus"/>
	<vehicle id="veh_10047_bus" type="Bus"/>
	<vehicle id="veh_10048_bus" type="Bus"/>
	<vehicle id="veh_10049_bus" type="Bus"/>
	<vehicle id="veh_1004_bus" type="Bus"/>
	<vehicle id="veh_10050_bus" type="Bus"/>
	<vehicle id="veh_10051_bus" type="Bus"/>
	<vehicle id="veh_10052_bus" type="Bus"/>
	<vehicle id="veh_10053_bus" type="Bus"/>
	<vehicle id="veh_10054_bus" type="Bus"/>
	<vehicle id="veh_10055_bus" type="Bus"/>
	<vehicle id="veh_10056_bus" type="Bus"/>
	<vehicle id="veh_10057_bus" type="Bus"/>
	<vehicle id="veh_10058_bus" type="Bus"/>
	<vehicle id="veh_10059_bus" type="Bus"/>
	<vehicle id="veh_1005_bus" type="Bus"/>
	<vehicle id="veh_10060_bus" type="Bus"/>
	<vehicle id="veh_10061_bus" type="Bus"/>
	<vehicle id="veh_10062_bus" type="Bus"/>
	<vehicle id="veh_10063_bus" type="Bus"/>
	<vehicle id="veh_10064_bus" type="Bus"/>
	<vehicle id="veh_10065_bus" type="Bus"/>
	<vehicle id="veh_10066_bus" type="Bus"/>
	<vehicle id="veh_10067_bus" type="Bus"/>
	<vehicle id="veh_10068_bus" type="Bus"/>
	<vehicle id="veh_10069_bus" type="Bus"/>
	<vehicle id="veh_1006_bus" type="Bus"/>
	<vehicle id="veh_10070_bus" type="Bus"/>
	<vehicle id="veh_10071_bus" type="Bus"/>
	<vehicle id="veh_10072_bus" type="Bus"/>
	<vehicle id="veh_10073_bus" type="Bus"/>
	<vehicle id="veh_10074_bus" type="Bus"/>
	<vehicle id="veh_10075_bus" type="Bus"/>
	<vehicle id="veh_10076_bus" type="Bus"/>
	<vehicle id="veh_10077_bus" type="Bus"/>
	<vehicle id="veh_10078_bus" type="Bus"/>
	<vehicle id="veh_10079_bus" type="Bus"/>
	<vehicle id="veh_1007_bus" type="Bus"/>
	<vehicle id="veh_10080_bus" type="Bus"/>
	<vehicle id="veh_10081_bus" type="Bus"/>
	<vehicle id="veh_10082_bus" type="Bus"/>
	<vehicle id="veh_10083_bus" type="Bus"/>
	<vehicle id="veh_10084_bus" type="Bus"/>
	<vehicle id="veh_10085_bus" type="Bus"/>
	<vehicle id="veh_10086_bus" type="Bus"/>
	<vehicle id="veh_10087_bus" type="Bus"/>
	<vehicle id="veh_10088_bus" type="Bus"/>
	<vehicle id="veh_10089_bus" type="Bus"/>
	<vehicle id="veh_1008_bus" type="Bus"/>
	<vehicle id="veh_10090_bus" type="Bus"/>
	<vehicle id="veh_10091_bus" type="Bus"/>
	<vehicle id="veh_10092_bus" type="Bus"/>
	<vehicle id="veh_10093_bus" type="Bus"/>
	<vehicle id="veh_10094_bus" type="Bus"/>
	<vehicle id="veh_10095_bus" type="Bus"/>
	<vehicle id="veh_10096_bus" type="Bus"/>
	<vehicle id="veh_10097_bus" type="Bus"/>
	<vehicle id="veh_10098_bus" type="Bus"/>
	<vehicle id="veh_10099_bus" type="Bus"/>
	<vehicle id="veh_1009_bus" type="Bus"/>
	<vehicle id="veh_100_bus" type="Bus"/>
	<vehicle id="veh_10100_bus" type="Bus"/>
	<vehicle id="veh_10101_bus" type="Bus"/>
	<vehicle id="veh_10102_bus" type="Bus"/>
	<vehicle id="veh_10103_bus" type="Bus"/>
	<vehicle id="veh_10104_bus" type="Bus"/>
	<vehicle id="veh_10105_bus" type="Bus"/>
	<vehicle id="veh_10106_bus" type="Bus"/>
	<vehicle id="veh_10107_bus" type="Bus"/>
	<vehicle id="veh_10108_bus" type="Bus"/>
	<vehicle id="veh_10109_bus" type="Bus"/>
	<vehicle id="veh_1010_bus" type="Bus"/>
	<vehicle id="veh_10110_bus" type="Bus"/>
	<vehicle id="veh_10111_bus" type="Bus"/>
	<vehicle id="veh_10112_bus" type="Bus"/>
	<vehicle id="veh_10113_bus" type="Bus"/>
	<vehicle id="veh_10114_bus" type="Bus"/>
	<vehicle id="veh_10115_bus" type="Bus"/>
	<vehicle id="veh_10116_bus" type="Bus"/>
	<vehicle id="veh_10117_bus" type="Bus"/>
	<vehicle id="veh_10118_bus" type="Bus"/>
	<vehicle id="veh_10119_bus" type="Bus"/>
	<vehicle id="veh_1011_bus" type="Bus"/>
	<vehicle id="veh_10120_bus" type="Bus"/>
	<vehicle id="veh_10121_bus" type="Bus"/>
	<vehicle id="veh_10122_bus" type="Bus"/>
	<vehicle id="veh_10123_bus" type="Bus"/>
	<vehicle id="veh_10124_bus" type="Bus"/>
	<vehicle id="veh_10125_bus" type="Bus"/>
	<vehicle id="veh_10126_bus" type="Bus"/>
	<vehicle id="veh_10127_bus" type="Bus"/>
	<vehicle id="veh_10128_bus" type="Bus"/>
	<vehicle id="veh_10129_bus" type="Bus"/>
	<vehicle id="veh_1012_bus" type="Bus"/>
	<vehicle id="veh_10130_bus" type="Bus"/>
	<vehicle id="veh_10131_bus" type="Bus"/>
	<vehicle id="veh_10132_bus" type="Bus"/>
	<vehicle id="veh_10133_bus" type="Bus"/>
	<vehicle id="veh_10134_bus" type="Bus"/>
	<vehicle id="veh_10135_bus" type="Bus"/>
	<vehicle id="veh_10136_bus" type="Bus"/>
	<vehicle id="veh_10137_bus" type="Bus"/>
	<vehicle id="veh_10138_bus" type="Bus"/>
	<vehicle id="veh_10139_bus" type="Bus"/>
	<vehicle id="veh_1013_bus" type="Bus"/>
	<vehicle id="veh_10140_bus" type="Bus"/>
	<vehicle id="veh_10141_bus" type="Bus"/>
	<vehicle id="veh_10142_bus" type="Bus"/>
	<vehicle id="veh_10143_bus" type="Bus"/>
	<vehicle id="veh_10144_bus" type="Bus"/>
	<vehicle id="veh_10145_bus" type="Bus"/>
	<vehicle id="veh_10146_bus" type="Bus"/>
	<vehicle id="veh_10147_bus" type="Bus"/>
	<vehicle id="veh_10148_bus" type="Bus"/>
	<vehicle id="veh_10149_bus" type="Bus"/>
	<vehicle id="veh_1014_bus" type="Bus"/>
	<vehicle id="veh_10150_bus" type="Bus"/>
	<vehicle id="veh_10151_bus" type="Bus"/>
	<vehicle id="veh_10152_bus" type="Bus"/>
	<vehicle id="veh_10153_bus" type="Bus"/>
	<vehicle id="veh_10154_bus" type="Bus"/>
	<vehicle id="veh_10155_bus" type="Bus"/>
	<vehicle id="veh_10156_bus" type="Bus"/>
	<vehicle id="veh_10157_bus" type="Bus"/>
	<vehicle id="veh_10158_bus" type="Bus"/>
	<vehicle id="veh_10159_bus" type="Bus"/>
	<vehicle id="veh_1015_bus" type="Bus"/>
	<vehicle id="veh_10160_bus" type="Bus"/>
	<vehicle id="veh_10161_bus" type="Bus"/>
	<vehicle id="veh_10162_bus" type="Bus"/>
	<vehicle id="veh_10163_bus" type="Bus"/>
	<vehicle id="veh_10164_bus" type="Bus"/>
	<vehicle id="veh_10165_bus" type="Bus"/>
	<vehicle id="veh_10166_bus" type="Bus"/>
	<vehicle id="veh_10167_bus" type="Bus"/>
	<vehicle id="veh_10168_bus" type="Bus"/>
	<vehicle id="veh_10169_bus" type="Bus"/>
	<vehicle id="veh_1016_bus" type="Bus"/>
	<vehicle id="veh_10170_bus" type="Bus"/>
	<vehicle id="veh_10171_bus" type="Bus"/>
	<vehicle id="veh_10172_bus" type="Bus"/>
	<vehicle id="veh_10173_bus" type="Bus"/>
	<vehicle id="veh_10174_bus" type="Bus"/>
	<vehicle id="veh_10175_bus" type="Bus"/>
	<vehicle id="veh_10176_bus" type="Bus"/>
	<vehicle id="veh_10177_bus" type="Bus"/>
	<vehicle id="veh_10178_bus" type="Bus"/>
	<vehicle id="veh_10179_bus" type="Bus"/>
	<vehicle id="veh_1017_bus" type="Bus"/>
	<vehicle id="veh_10180_bus" type="Bus"/>
	<vehicle id="veh_10181_bus" type="Bus"/>
	<vehicle id="veh_10182_bus" type="Bus"/>
	<vehicle id="veh_10183_bus" type="Bus"/>
	<vehicle id="veh_10184_bus" type="Bus"/>
	<vehicle id="veh_10185_bus" type="Bus"/>
	<vehicle id="veh_10186_bus" type="Bus"/>
	<vehicle id="veh_10187_bus" type="Bus"/>
	<vehicle id="veh_10188_bus" type="Bus"/>
	<vehicle id="veh_10189_bus" type="Bus"/>
	<vehicle id="veh_1018_bus" type="Bus"/>
	<vehicle id="veh_10190_bus" type="Bus"/>
	<vehicle id="veh_10191_bus" type="Bus"/>
	<vehicle id="veh_10192_bus" type="Bus"/>
	<vehicle id="veh_10193_bus" type="Bus"/>
	<vehicle id="veh_10194_bus" type="Bus"/>
	<vehicle id="veh_10195_bus" type="Bus"/>
	<vehicle id="veh_10196_bus" type="Bus"/>
	<vehicle id="veh_10197_bus" type="Bus"/>
	<vehicle id="veh_10198_bus" type="Bus"/>
	<vehicle id="veh_10199_bus" type="Bus"/>
	<vehicle id="veh_1019_bus" type="Bus"/>
	<vehicle id="veh_101_bus" type="Bus"/>
	<vehicle id="veh_10200_bus" type="Bus"/>
	<vehicle id="veh_10201_bus" type="Bus"/>
	<vehicle id="veh_10202_bus" type="Bus"/>
	<vehicle id="veh_10203_bus" type="Bus"/>
	<vehicle id="veh_10204_bus" type="Bus"/>
	<vehicle id="veh_10205_bus" type="Bus"/>
	<vehicle id="veh_10206_bus" type="Bus"/>
	<vehicle id="veh_10207_bus" type="Bus"/>
	<vehicle id="veh_10208_bus" type="Bus"/>
	<vehicle id="veh_10209_bus" type="Bus"/>
	<vehicle id="veh_1020_bus" type="Bus"/>
	<vehicle id="veh_10210_bus" type="Bus"/>
	<vehicle id="veh_10211_bus" type="Bus"/>
	<vehicle id="veh_10212_bus" type="Bus"/>
	<vehicle id="veh_10213_bus" type="Bus"/>
	<vehicle id="veh_10214_bus" type="Bus"/>
	<vehicle id="veh_10215_bus" type="Bus"/>
	<vehicle id="veh_10216_bus" type="Bus"/>
	<vehicle id="veh_10217_bus" type="Bus"/>
	<vehicle id="veh_10218_bus" type="Bus"/>
	<vehicle id="veh_10219_bus" type="Bus"/>
	<vehicle id="veh_1021_bus" type="Bus"/>
	<vehicle id="veh_10220_bus" type="Bus"/>
	<vehicle id="veh_10221_bus" type="Bus"/>
	<vehicle id="veh_10222_bus" type="Bus"/>
	<vehicle id="veh_10223_bus" type="Bus"/>
	<vehicle id="veh_10224_bus" type="Bus"/>
	<vehicle id="veh_10225_bus" type="Bus"/>
	<vehicle id="veh_10226_bus" type="Bus"/>
	<vehicle id="veh_10227_bus" type="Bus"/>
	<vehicle id="veh_10228_bus" type="Bus"/>
	<vehicle id="veh_10229_bus" type="Bus"/>
	<vehicle id="veh_1022_bus" type="Bus"/>
	<vehicle id="veh_10230_bus" type="Bus"/>
	<vehicle id="veh_10231_bus" type="Bus"/>
	<vehicle id="veh_10232_bus" type="Bus"/>
	<vehicle id="veh_10233_bus" type="Bus"/>
	<vehicle id="veh_10234_bus" type="Bus"/>
	<vehicle id="veh_10235_bus" type="Bus"/>
	<vehicle id="veh_10236_bus" type="Bus"/>
	<vehicle id="veh_10237_bus" type="Bus"/>
	<vehicle id="veh_10238_bus" type="Bus"/>
	<vehicle id="veh_10239_bus" type="Bus"/>
	<vehicle id="veh_1023_bus" type="Bus"/>
	<vehicle id="veh_10240_bus" type="Bus"/>
	<vehicle id="veh_10241_bus" type="Bus"/>
	<vehicle id="veh_10242_bus" type="Bus"/>
	<vehicle id="veh_10243_bus" type="Bus"/>
	<vehicle id="veh_10244_bus" type="Bus"/>
	<vehicle id="veh_10245_bus" type="Bus"/>
	<vehicle id="veh_10246_bus" type="Bus"/>
	<vehicle id="veh_10247_bus" type="Bus"/>
	<vehicle id="veh_10248_bus" type="Bus"/>
	<vehicle id="veh_10249_bus" type="Bus"/>
	<vehicle id="veh_1024_bus" type="Bus"/>
	<vehicle id="veh_10250_bus" type="Bus"/>
	<vehicle id="veh_10251_bus" type="Bus"/>
	<vehicle id="veh_10252_bus" type="Bus"/>
	<vehicle id="veh_10253_bus" type="Bus"/>
	<vehicle id="veh_10254_bus" type="Bus"/>
	<vehicle id="veh_10255_bus" type="Bus"/>
	<vehicle id="veh_10256_bus" type="Bus"/>
	<vehicle id="veh_10257_bus" type="Bus"/>
	<vehicle id="veh_10258_bus" type="Bus"/>
	<vehicle id="veh_10259_bus" type="Bus"/>
	<vehicle id="veh_1025_bus" type="Bus"/>
	<vehicle id="veh_10260_bus" type="Bus"/>
	<vehicle id="veh_10261_bus" type="Bus"/>
	<vehicle id="veh_10262_bus" type="Bus"/>
	<vehicle id="veh_10263_bus" type="Bus"/>
	<vehicle id="veh_10264_bus" type="Bus"/>
	<vehicle id="veh_10265_bus" type="Bus"/>
	<vehicle id="veh_10266_bus" type="Bus"/>
	<vehicle id="veh_10267_bus" type="Bus"/>
	<vehicle id="veh_10268_bus" type="Bus"/>
	<vehicle id="veh_10269_bus" type="Bus"/>
	<vehicle id="veh_1026_bus" type="Bus"/>
	<vehicle id="veh_10270_bus" type="Bus"/>
	<vehicle id="veh_10271_bus" type="Bus"/>
	<vehicle id="veh_10272_bus" type="Bus"/>
	<vehicle id="veh_10273_bus" type="Bus"/>
	<vehicle id="veh_10274_bus" type="Bus"/>
	<vehicle id="veh_10275_bus" type="Bus"/>
	<vehicle id="veh_10276_bus" type="Bus"/>
	<vehicle id="veh_10277_bus" type="Bus"/>
	<vehicle id="veh_10278_bus" type="Bus"/>
	<vehicle id="veh_10279_bus" type="Bus"/>
	<vehicle id="veh_1027_bus" type="Bus"/>
	<vehicle id="veh_10280_bus" type="Bus"/>
	<vehicle id="veh_10281_bus" type="Bus"/>
	<vehicle id="veh_10282_bus" type="Bus"/>
	<vehicle id="veh_10283_bus" type="Bus"/>
	<vehicle id="veh_10284_bus" type="Bus"/>
	<vehicle id="veh_10285_bus" type="Bus"/>
	<vehicle id="veh_10286_bus" type="Bus"/>
	<vehicle id="veh_10287_bus" type="Bus"/>
	<vehicle id="veh_10288_bus" type="Bus"/>
	<vehicle id="veh_10289_bus" type="Bus"/>
	<vehicle id="veh_1028_bus" type="Bus"/>
	<vehicle id="veh_10290_bus" type="Bus"/>
	<vehicle id="veh_10291_bus" type="Bus"/>
	<vehicle id="veh_10292_bus" type="Bus"/>
	<vehicle id="veh_10293_bus" type="Bus"/>
	<vehicle id="veh_10294_bus" type="Bus"/>
	<vehicle id="veh_10295_bus" type="Bus"/>
	<vehicle id="veh_10296_bus" type="Bus"/>
	<vehicle id="veh_10297_bus" type="Bus"/>
	<vehicle id="veh_10298_bus" type="Bus"/>
	<vehicle id="veh_10299_bus" type="Bus"/>
	<vehicle id="veh_1029_bus" type="Bus"/>
	<vehicle id="veh_102_bus" type="Bus"/>
	<vehicle id="veh_10300_bus" type="Bus"/>
	<vehicle id="veh_10301_bus" type="Bus"/>
	<vehicle id="veh_10302_bus" type="Bus"/>
	<vehicle id="veh_10303_bus" type="Bus"/>
	<vehicle id="veh_10304_bus" type="Bus"/>
	<vehicle id="veh_10305_bus" type="Bus"/>
	<vehicle id="veh_10306_bus" type="Bus"/>
	<vehicle id="veh_10307_bus" type="Bus"/>
	<vehicle id="veh_10308_bus" type="Bus"/>
	<vehicle id="veh_10309_bus" type="Bus"/>
	<vehicle id="veh_1030_bus" type="Bus"/>
	<vehicle id="veh_10310_bus" type="Bus"/>
	<vehicle id="veh_10311_bus" type="Bus"/>
	<vehicle id="veh_10312_bus" type="Bus"/>
	<vehicle id="veh_10313_bus" type="Bus"/>
	<vehicle id="veh_10314_bus" type="Bus"/>
	<vehicle id="veh_10315_bus" type="Bus"/>
	<vehicle id="veh_10316_bus" type="Bus"/>
	<vehicle id="veh_10317_bus" type="Bus"/>
	<vehicle id="veh_10318_bus" type="Bus"/>
	<vehicle id="veh_10319_bus" type="Bus"/>
	<vehicle id="veh_1031_bus" type="Bus"/>
	<vehicle id="veh_10320_bus" type="Bus"/>
	<vehicle id="veh_10321_bus" type="Bus"/>
	<vehicle id="veh_10322_bus" type="Bus"/>
	<vehicle id="veh_10323_bus" type="Bus"/>
	<vehicle id="veh_10324_bus" type="Bus"/>
	<vehicle id="veh_10325_bus" type="Bus"/>
	<vehicle id="veh_10326_bus" type="Bus"/>
	<vehicle id="veh_10327_bus" type="Bus"/>
	<vehicle id="veh_10328_bus" type="Bus"/>
	<vehicle id="veh_10329_bus" type="Bus"/>
	<vehicle id="veh_1032_bus" type="Bus"/>
	<vehicle id="veh_10330_bus" type="Bus"/>
	<vehicle id="veh_10331_bus" type="Bus"/>
	<vehicle id="veh_10332_bus" type="Bus"/>
	<vehicle id="veh_10333_bus" type="Bus"/>
	<vehicle id="veh_10334_bus" type="Bus"/>
	<vehicle id="veh_10335_bus" type="Bus"/>
	<vehicle id="veh_10336_bus" type="Bus"/>
	<vehicle id="veh_10337_bus" type="Bus"/>
	<vehicle id="veh_10338_bus" type="Bus"/>
	<vehicle id="veh_10339_bus" type="Bus"/>
	<vehicle id="veh_1033_bus" type="Bus"/>
	<vehicle id="veh_10340_bus" type="Bus"/>
	<vehicle id="veh_10341_bus" type="Bus"/>
	<vehicle id="veh_10342_bus" type="Bus"/>
	<vehicle id="veh_10343_bus" type="Bus"/>
	<vehicle id="veh_10344_bus" type="Bus"/>
	<vehicle id="veh_10345_bus" type="Bus"/>
	<vehicle id="veh_10346_bus" type="Bus"/>
	<vehicle id="veh_10347_bus" type="Bus"/>
	<vehicle id="veh_10348_bus" type="Bus"/>
	<vehicle id="veh_10349_bus" type="Bus"/>
	<vehicle id="veh_1034_bus" type="Bus"/>
	<vehicle id="veh_10350_bus" type="Bus"/>
	<vehicle id="veh_10351_bus" type="Bus"/>
	<vehicle id="veh_10352_bus" type="Bus"/>
	<vehicle id="veh_10353_bus" type="Bus"/>
	<vehicle id="veh_10354_bus" type="Bus"/>
	<vehicle id="veh_10355_bus" type="Bus"/>
	<vehicle id="veh_10356_bus" type="Bus"/>
	<vehicle id="veh_10357_bus" type="Bus"/>
	<vehicle id="veh_10358_bus" type="Bus"/>
	<vehicle id="veh_10359_bus" type="Bus"/>
	<vehicle id="veh_1035_bus" type="Bus"/>
	<vehicle id="veh_10360_bus" type="Bus"/>
	<vehicle id="veh_10361_bus" type="Bus"/>
	<vehicle id="veh_10362_bus" type="Bus"/>
	<vehicle id="veh_10363_bus" type="Bus"/>
	<vehicle id="veh_10364_bus" type="Bus"/>
	<vehicle id="veh_10365_bus" type="Bus"/>
	<vehicle id="veh_10366_bus" type="Bus"/>
	<vehicle id="veh_10367_bus" type="Bus"/>
	<vehicle id="veh_10368_bus" type="Bus"/>
	<vehicle id="veh_10369_bus" type="Bus"/>
	<vehicle id="veh_1036_bus" type="Bus"/>
	<vehicle id="veh_10370_bus" type="Bus"/>
	<vehicle id="veh_10371_bus" type="Bus"/>
	<vehicle id="veh_10372_bus" type="Bus"/>
	<vehicle id="veh_10373_bus" type="Bus"/>
	<vehicle id="veh_10374_bus" type="Bus"/>
	<vehicle id="veh_10375_bus" type="Bus"/>
	<vehicle id="veh_10376_bus" type="Bus"/>
	<vehicle id="veh_10377_bus" type="Bus"/>
	<vehicle id="veh_10378_bus" type="Bus"/>
	<vehicle id="veh_10379_bus" type="Bus"/>
	<vehicle id="veh_1037_bus" type="Bus"/>
	<vehicle id="veh_10380_bus" type="Bus"/>
	<vehicle id="veh_10381_bus" type="Bus"/>
	<vehicle id="veh_10382_bus" type="Bus"/>
	<vehicle id="veh_10383_bus" type="Bus"/>
	<vehicle id="veh_10384_bus" type="Bus"/>
	<vehicle id="veh_10385_bus" type="Bus"/>
	<vehicle id="veh_10386_bus" type="Bus"/>
	<vehicle id="veh_10387_bus" type="Bus"/>
	<vehicle id="veh_10388_bus" type="Bus"/>
	<vehicle id="veh_10389_bus" type="Bus"/>
	<vehicle id="veh_1038_bus" type="Bus"/>
	<vehicle id="veh_10390_bus" type="Bus"/>
	<vehicle id="veh_10391_bus" type="Bus"/>
	<vehicle id="veh_10392_bus" type="Bus"/>
	<vehicle id="veh_10393_bus" type="Bus"/>
	<vehicle id="veh_10394_bus" type="Bus"/>
	<vehicle id="veh_10395_bus" type="Bus"/>
	<vehicle id="veh_10396_bus" type="Bus"/>
	<vehicle id="veh_10397_bus" type="Bus"/>
	<vehicle id="veh_10398_bus" type="Bus"/>
	<vehicle id="veh_10399_bus" type="Bus"/>
	<vehicle id="veh_1039_bus" type="Bus"/>
	<vehicle id="veh_103_bus" type="Bus"/>
	<vehicle id="veh_10400_bus" type="Bus"/>
	<vehicle id="veh_10401_bus" type="Bus"/>
	<vehicle id="veh_10402_bus" type="Bus"/>
	<vehicle id="veh_10403_bus" type="Bus"/>
	<vehicle id="veh_10404_bus" type="Bus"/>
	<vehicle id="veh_10405_bus" type="Bus"/>
	<vehicle id="veh_10406_bus" type="Bus"/>
	<vehicle id="veh_10407_bus" type="Bus"/>
	<vehicle id="veh_10408_bus" type="Bus"/>
	<vehicle id="veh_10409_bus" type="Bus"/>
	<vehicle id="veh_1040_bus" type="Bus"/>
	<vehicle id="veh_10410_bus" type="Bus"/>
	<vehicle id="veh_10411_bus" type="Bus"/>
	<vehicle id="veh_10412_bus" type="Bus"/>
	<vehicle id="veh_10413_bus" type="Bus"/>
	<vehicle id="veh_10414_bus" type="Bus"/>
	<vehicle id="veh_10415_bus" type="Bus"/>
	<vehicle id="veh_10416_bus" type="Bus"/>
	<vehicle id="veh_10417_bus" type="Bus"/>
	<vehicle id="veh_10418_bus" type="Bus"/>
	<vehicle id="veh_10419_bus" type="Bus"/>
	<vehicle id="veh_1041_bus" type="Bus"/>
	<vehicle id="veh_10420_bus" type="Bus"/>
	<vehicle id="veh_10421_bus" type="Bus"/>
	<vehicle id="veh_10422_bus" type="Bus"/>
	<vehicle id="veh_10423_bus" type="Bus"/>
	<vehicle id="veh_10424_bus" type="Bus"/>
	<vehicle id="veh_10425_bus" type="Bus"/>
	<vehicle id="veh_10426_bus" type="Bus"/>
	<vehicle id="veh_10427_bus" type="Bus"/>
	<vehicle id="veh_10428_bus" type="Bus"/>
	<vehicle id="veh_10429_bus" type="Bus"/>
	<vehicle id="veh_1042_bus" type="Bus"/>
	<vehicle id="veh_10430_bus" type="Bus"/>
	<vehicle id="veh_10431_bus" type="Bus"/>
	<vehicle id="veh_10432_bus" type="Bus"/>
	<vehicle id="veh_10433_bus" type="Bus"/>
	<vehicle id="veh_10434_bus" type="Bus"/>
	<vehicle id="veh_10435_bus" type="Bus"/>
	<vehicle id="veh_10436_bus" type="Bus"/>
	<vehicle id="veh_10437_bus" type="Bus"/>
	<vehicle id="veh_10438_bus" type="Bus"/>
	<vehicle id="veh_10439_bus" type="Bus"/>
	<vehicle id="veh_1043_bus" type="Bus"/>
	<vehicle id="veh_10440_bus" type="Bus"/>
	<vehicle id="veh_10441_bus" type="Bus"/>
	<vehicle id="veh_10442_bus" type="Bus"/>
	<vehicle id="veh_10443_bus" type="Bus"/>
	<vehicle id="veh_10444_bus" type="Bus"/>
	<vehicle id="veh_10445_bus" type="Bus"/>
	<vehicle id="veh_10446_bus" type="Bus"/>
	<vehicle id="veh_10447_bus" type="Bus"/>
	<vehicle id="veh_10448_bus" type="Bus"/>
	<vehicle id="veh_10449_bus" type="Bus"/>
	<vehicle id="veh_1044_bus" type="Bus"/>
	<vehicle id="veh_10450_bus" type="Bus"/>
	<vehicle id="veh_10451_bus" type="Bus"/>
	<vehicle id="veh_10452_bus" type="Bus"/>
	<vehicle id="veh_10453_bus" type="Bus"/>
	<vehicle id="veh_10454_bus" type="Bus"/>
	<vehicle id="veh_10455_bus" type="Bus"/>
	<vehicle id="veh_10456_bus" type="Bus"/>
	<vehicle id="veh_10457_bus" type="Bus"/>
	<vehicle id="veh_10458_bus" type="Bus"/>
	<vehicle id="veh_10459_bus" type="Bus"/>
	<vehicle id="veh_1045_bus" type="Bus"/>
	<vehicle id="veh_10460_bus" type="Bus"/>
	<vehicle id="veh_10461_bus" type="Bus"/>
	<vehicle id="veh_10462_bus" type="Bus"/>
	<vehicle id="veh_10463_bus" type="Bus"/>
	<vehicle id="veh_10464_bus" type="Bus"/>
	<vehicle id="veh_10465_bus" type="Bus"/>
	<vehicle id="veh_10466_bus" type="Bus"/>
	<vehicle id="veh_10467_bus" type="Bus"/>
	<vehicle id="veh_10468_bus" type="Bus"/>
	<vehicle id="veh_10469_bus" type="Bus"/>
	<vehicle id="veh_1046_bus" type="Bus"/>
	<vehicle id="veh_10470_bus" type="Bus"/>
	<vehicle id="veh_10471_bus" type="Bus"/>
	<vehicle id="veh_10472_bus" type="Bus"/>
	<vehicle id="veh_10473_bus" type="Bus"/>
	<vehicle id="veh_10474_bus" type="Bus"/>
	<vehicle id="veh_10475_bus" type="Bus"/>
	<vehicle id="veh_10476_bus" type="Bus"/>
	<vehicle id="veh_10477_bus" type="Bus"/>
	<vehicle id="veh_10478_bus" type="Bus"/>
	<vehicle id="veh_10479_bus" type="Bus"/>
	<vehicle id="veh_1047_bus" type="Bus"/>
	<vehicle id="veh_10480_bus" type="Bus"/>
	<vehicle id="veh_10481_bus" type="Bus"/>
	<vehicle id="veh_10482_bus" type="Bus"/>
	<vehicle id="veh_10483_bus" type="Bus"/>
	<vehicle id="veh_10484_bus" type="Bus"/>
	<vehicle id="veh_10485_bus" type="Bus"/>
	<vehicle id="veh_10486_bus" type="Bus"/>
	<vehicle id="veh_10487_bus" type="Bus"/>
	<vehicle id="veh_10488_bus" type="Bus"/>
	<vehicle id="veh_10489_bus" type="Bus"/>
	<vehicle id="veh_1048_bus" type="Bus"/>
	<vehicle id="veh_10490_bus" type="Bus"/>
	<vehicle id="veh_10491_bus" type="Bus"/>
	<vehicle id="veh_10492_bus" type="Bus"/>
	<vehicle id="veh_10493_bus" type="Bus"/>
	<vehicle id="veh_10494_bus" type="Bus"/>
	<vehicle id="veh_10495_bus" type="Bus"/>
	<vehicle id="veh_10496_bus" type="Bus"/>
	<vehicle id="veh_10497_bus" type="Bus"/>
	<vehicle id="veh_10498_bus" type="Bus"/>
	<vehicle id="veh_10499_bus" type="Bus"/>
	<vehicle id="veh_1049_bus" type="Bus"/>
	<vehicle id="veh_104_bus" type="Bus"/>
	<vehicle id="veh_10500_bus" type="Bus"/>
	<vehicle id="veh_10501_bus" type="Bus"/>
	<vehicle id="veh_10502_bus" type="Bus"/>
	<vehicle id="veh_10503_bus" type="Bus"/>
	<vehicle id="veh_10504_bus" type="Bus"/>
	<vehicle id="veh_10505_bus" type="Bus"/>
	<vehicle id="veh_10506_bus" type="Bus"/>
	<vehicle id="veh_10507_bus" type="Bus"/>
	<vehicle id="veh_10508_bus" type="Bus"/>
	<vehicle id="veh_10509_bus" type="Bus"/>
	<vehicle id="veh_1050_bus" type="Bus"/>
	<vehicle id="veh_10510_bus" type="Bus"/>
	<vehicle id="veh_10511_bus" type="Bus"/>
	<vehicle id="veh_10512_bus" type="Bus"/>
	<vehicle id="veh_10513_bus" type="Bus"/>
	<vehicle id="veh_10514_bus" type="Bus"/>
	<vehicle id="veh_10515_bus" type="Bus"/>
	<vehicle id="veh_10516_bus" type="Bus"/>
	<vehicle id="veh_10517_bus" type="Bus"/>
	<vehicle id="veh_10518_bus" type="Bus"/>
	<vehicle id="veh_10519_bus" type="Bus"/>
	<vehicle id="veh_1051_bus" type="Bus"/>
	<vehicle id="veh_10520_bus" type="Bus"/>
	<vehicle id="veh_10521_bus" type="Bus"/>
	<vehicle id="veh_10522_bus" type="Bus"/>
	<vehicle id="veh_10523_bus" type="Bus"/>
	<vehicle id="veh_10524_bus" type="Bus"/>
	<vehicle id="veh_10525_bus" type="Bus"/>
	<vehicle id="veh_10526_bus" type="Bus"/>
	<vehicle id="veh_10527_bus" type="Bus"/>
	<vehicle id="veh_10528_bus" type="Bus"/>
	<vehicle id="veh_10529_bus" type="Bus"/>
	<vehicle id="veh_1052_bus" type="Bus"/>
	<vehicle id="veh_10530_bus" type="Bus"/>
	<vehicle id="veh_10531_bus" type="Bus"/>
	<vehicle id="veh_10532_bus" type="Bus"/>
	<vehicle id="veh_10533_bus" type="Bus"/>
	<vehicle id="veh_10534_bus" type="Bus"/>
	<vehicle id="veh_10535_bus" type="Bus"/>
	<vehicle id="veh_10536_bus" type="Bus"/>
	<vehicle id="veh_10537_bus" type="Bus"/>
	<vehicle id="veh_10538_bus" type="Bus"/>
	<vehicle id="veh_10539_bus" type="Bus"/>
	<vehicle id="veh_1053_bus" type="Bus"/>
	<vehicle id="veh_10540_bus" type="Bus"/>
	<vehicle id="veh_10541_bus" type="Bus"/>
	<vehicle id="veh_10542_bus" type="Bus"/>
	<vehicle id="veh_10543_bus" type="Bus"/>
	<vehicle id="veh_10544_bus" type="Bus"/>
	<vehicle id="veh_10545_bus" type="Bus"/>
	<vehicle id="veh_10546_bus" type="Bus"/>
	<vehicle id="veh_10547_bus" type="Bus"/>
	<vehicle id="veh_10548_bus" type="Bus"/>
	<vehicle id="veh_10549_bus" type="Bus"/>
	<vehicle id="veh_1054_bus" type="Bus"/>
	<vehicle id="veh_10550_bus" type="Bus"/>
	<vehicle id="veh_10551_bus" type="Bus"/>
	<vehicle id="veh_10552_bus" type="Bus"/>
	<vehicle id="veh_10553_bus" type="Bus"/>
	<vehicle id="veh_10554_bus" type="Bus"/>
	<vehicle id="veh_10555_bus" type="Bus"/>
	<vehicle id="veh_10556_bus" type="Bus"/>
	<vehicle id="veh_10557_bus" type="Bus"/>
	<vehicle id="veh_10558_bus" type="Bus"/>
	<vehicle id="veh_10559_bus" type="Bus"/>
	<vehicle id="veh_1055_bus" type="Bus"/>
	<vehicle id="veh_10560_bus" type="Bus"/>
	<vehicle id="veh_10561_bus" type="Bus"/>
	<vehicle id="veh_10562_bus" type="Bus"/>
	<vehicle id="veh_10563_bus" type="Bus"/>
	<vehicle id="veh_10564_bus" type="Bus"/>
	<vehicle id="veh_10565_bus" type="Bus"/>
	<vehicle id="veh_10566_bus" type="Bus"/>
	<vehicle id="veh_10567_bus" type="Bus"/>
	<vehicle id="veh_10568_bus" type="Bus"/>
	<vehicle id="veh_10569_bus" type="Bus"/>
	<vehicle id="veh_1056_bus" type="Bus"/>
	<vehicle id="veh_10570_bus" type="Bus"/>
	<vehicle id="veh_10571_bus" type="Bus"/>
	<vehicle id="veh_10572_bus" type="Bus"/>
	<vehicle id="veh_10573_bus" type="Bus"/>
	<vehicle id="veh_10574_bus" type="Bus"/>
	<vehicle id="veh_10575_bus" type="Bus"/>
	<vehicle id="veh_10576_bus" type="Bus"/>
	<vehicle id="veh_10577_bus" type="Bus"/>
	<vehicle id="veh_10578_bus" type="Bus"/>
	<vehicle id="veh_10579_bus" type="Bus"/>
	<vehicle id="veh_1057_bus" type="Bus"/>
	<vehicle id="veh_10580_bus" type="Bus"/>
	<vehicle id="veh_10581_bus" type="Bus"/>
	<vehicle id="veh_10582_bus" type="Bus"/>
	<vehicle id="veh_10583_bus" type="Bus"/>
	<vehicle id="veh_10584_bus" type="Bus"/>
	<vehicle id="veh_10585_bus" type="Bus"/>
	<vehicle id="veh_10586_bus" type="Bus"/>
	<vehicle id="veh_10587_bus" type="Bus"/>
	<vehicle id="veh_10588_bus" type="Bus"/>
	<vehicle id="veh_10589_bus" type="Bus"/>
	<vehicle id="veh_1058_bus" type="Bus"/>
	<vehicle id="veh_10590_bus" type="Bus"/>
	<vehicle id="veh_10591_bus" type="Bus"/>
	<vehicle id="veh_10592_bus" type="Bus"/>
	<vehicle id="veh_10593_bus" type="Bus"/>
	<vehicle id="veh_10594_bus" type="Bus"/>
	<vehicle id="veh_10595_bus" type="Bus"/>
	<vehicle id="veh_10596_bus" type="Bus"/>
	<vehicle id="veh_10597_bus" type="Bus"/>
	<vehicle id="veh_10598_bus" type="Bus"/>
	<vehicle id="veh_10599_bus" type="Bus"/>
	<vehicle id="veh_1059_bus" type="Bus"/>
	<vehicle id="veh_105_bus" type="Bus"/>
	<vehicle id="veh_10600_bus" type="Bus"/>
	<vehicle id="veh_10601_bus" type="Bus"/>
	<vehicle id="veh_10602_bus" type="Bus"/>
	<vehicle id="veh_10603_bus" type="Bus"/>
	<vehicle id="veh_10604_bus" type="Bus"/>
	<vehicle id="veh_10605_bus" type="Bus"/>
	<vehicle id="veh_10606_bus" type="Bus"/>
	<vehicle id="veh_10607_bus" type="Bus"/>
	<vehicle id="veh_10608_bus" type="Bus"/>
	<vehicle id="veh_10609_bus" type="Bus"/>
	<vehicle id="veh_1060_bus" type="Bus"/>
	<vehicle id="veh_10610_bus" type="Bus"/>