<?xml version="1.0" encoding="UTF-8"?>
<!DOCTYPE transitSchedule SYSTEM "http://www.matsim.org/files/dtd/transitSchedule_v2.dtd">

<transitSchedule>

	<transitStops>
		<stopFacility id="0800COA05209" x="241757.0111556825" y="58517.5631131937" name="Church Road" isBlocking="false"/>
		<stopFacility id="0800COA10273" x="241163.02342094187" y="59460.14925260359" name="The Ploughboy" isBlocking="false"/>
		<stopFacility id="0800COA10276" x="241591.97720286317" y="59373.8072812311" name="Co-Op Funeral Service" isBlocking="false"/>
		<stopFacility id="0800COA16063" x="241773.99586923802" y="59003.346992184495" name="Castlemead Drive" isBlocking="false"/>
		<stopFacility id="0800COA16075" x="241830.028801704" y="58780.22011012802" name="Hawthorns" isBlocking="false"/>
		<stopFacility id="0800COA16076" x="241910.01574056203" y="58964.77320066866" name="Castlemead Drive" isBlocking="false"/>
		<stopFacility id="0800COA16078" x="241899.9850367911" y="58596.737709077686" name="Long Park Road" isBlocking="false"/>
		<stopFacility id="0800COA16079" x="242212.9994869424" y="58749.837302363565" name="St Stephens Road" isBlocking="false"/>
		<stopFacility id="0800COA16086" x="242200.98718335314" y="58752.42208875372" name="St Stephens Road" isBlocking="false"/>
		<stopFacility id="0800COB20096" x="242970.99965480887" y="58864.09927814524" name="Fore Street Bottom" isBlocking="false"/>
		<stopFacility id="0800COB20097" x="242725.9808233118" y="58905.89293237121" name="Fore Street Top" isBlocking="false"/>
		<stopFacility id="0800COB20098" x="242366.98119726067" y="58807.551684506325" name="Windmill Hill" isBlocking="false"/>
		<stopFacility id="0800COB20099" x="242166.04100380786" y="58608.80391727394" name="Beatrice Avenue" isBlocking="false"/>
		<stopFacility id="0800COB20101" x="242586.99562493004" y="58447.11658994941" name="Babis Farm" isBlocking="false"/>
		<stopFacility id="0800COB20102" x="242585.9816907908" y="58355.89808188929" name="Churchill Walk" isBlocking="false"/>
		<stopFacility id="0800COB20103" x="242525.9897597877" y="58283.13086315396" name="Lynher Drive" isBlocking="false"/>
		<stopFacility id="0800COB20104" x="242378.00337286273" y="58376.571839355456" name="The Bridges" isBlocking="false"/>
		<stopFacility id="0800COB20106" x="242009.0114895439" y="58437.681063341704" name="Wearde Road" isBlocking="false"/>
		<stopFacility id="0800COB20114" x="241545.01290665992" y="59062.52013324117" name="Oaklands Green" isBlocking="false"/>
		<stopFacility id="0800COB20115" x="241373.97620480284" y="59043.177586443344" name="Russell Close" isBlocking="false"/>
		<stopFacility id="0800COB20116" x="241163.02447561655" y="58843.654561609175" name="The Court" isBlocking="false"/>
		<stopFacility id="0800COB20117" x="240852.99377565156" y="59012.12760098939" name="Sycamore Road" isBlocking="false"/>
		<stopFacility id="0800COB20118" x="240849.96879507965" y="59114.597303358634" name="Gallacher Way" isBlocking="false"/>
		<stopFacility id="0800COB20121" x="241286.975222234" y="59408.568267797615" name="Grenfell Gardens" isBlocking="false"/>
		<stopFacility id="0800COB20126" x="241839.0342782776" y="59220.61849686137" name="Callington Road Fire Station" isBlocking="false"/>
		<stopFacility id="0800COB20127" x="242060.99089450898" y="59138.29947704275" name="Callington Road Football Stadium" isBlocking="false"/>
		<stopFacility id="0800COB20128" x="242150.99173175436" y="59125.59101495831" name="Callington Road" isBlocking="false"/>
		<stopFacility id="0800COB20129" x="242285.97359003915" y="59090.39629733283" name="Callington Road" isBlocking="false"/>
		<stopFacility id="0800COB20130" x="242299.00274419933" y="59076.65333316731" name="Callington Road St. Annes" isBlocking="false"/>
		<stopFacility id="0800COB20131" x="242721.02141221677" y="58916.05585693379" name="Fore Street Top" isBlocking="false"/>
		<stopFacility id="0800COB20132" x="243001.0011655506" y="58870.99605416297" name="Fore Street Bottom" isBlocking="false"/>
		<stopFacility id="0800COB20141" x="241753.97826187673" y="59248.76327808108" name="Frith Road" isBlocking="false"/>
		<stopFacility id="0800COB20145" x="241901.98721032846" y="58965.01374746143" name="Castlemead Drive" isBlocking="false"/>
		<stopFacility id="0800COB20146" x="241822.99031052203" y="58782.65668432493" name="Hawthorns" isBlocking="false"/>
		<stopFacility id="0800COB20147" x="241791.0268136096" y="58724.63656731881" name="Cornwall College" isBlocking="false"/>
		<stopFacility id="0800COB20148" x="241902.9914919241" y="58585.519666710636" name="Long Park Road" isBlocking="false"/>
		<stopFacility id="0800COB20150" x="242042.00380729293" y="58601.38723017668" name="Long Park Road School" isBlocking="false"/>
		<stopFacility id="0800COB20152" x="242358.01953603397" y="58812.270572997164" name="Windmill Hill" isBlocking="false"/>
		<stopFacility id="0800COC56538" x="241368.9798854862" y="59413.891596102476" name="Taylor Road" isBlocking="false"/>
		<stopFacility id="0800COZ06240" x="241354.00332448908" y="59048.22928419727" name="Russell Close" isBlocking="false"/>
		<stopFacility id="0800COZ06340" x="241062.9759613527" y="58832.200582090474" name="Yellow Tor Road" isBlocking="false"/>
		<stopFacility id="0800COZ06377" x="241865.94899337285" y="58419.70991323856" name="St Stephens Road" isBlocking="false"/>
		<stopFacility id="0800COZ06378" x="242215.00046876888" y="58398.13459322334" name="Broad Walk" isBlocking="false"/>
		<stopFacility id="0800PLX00024" x="241267.99901060283" y="59165.43477819205" name="Elm Cottages" isBlocking="false"/>
		<stopFacility id="0800PLX38447" x="240765.0330340661" y="59377.557589774544" name="Pondfield Road" isBlocking="false"/>
		<stopFacility id="0800PLX38452" x="241549.96915436603" y="59071.27371133442" name="Oaklands Green" isBlocking="false"/>
		<stopFacility id="0800PLX38461" x="242321.01462580677" y="58532.952368965285" name="Frobisher Drive" isBlocking="false"/>
		<stopFacility id="0800PLX38463" x="241783.01809986003" y="58732.66627395779" name="Cornwall College" isBlocking="false"/>
		<stopFacility id="1100PLA11162" x="250309.98330559727" y="62215.94106856876" name="Roborough by Pass" isBlocking="false"/>
		<stopFacility id="1100PLA11176" x="250557.97370897458" y="61511.231802968075" name="Long Park Drive" isBlocking="false"/>
		<stopFacility id="1100PLA11177" x="250586.0165065051" y="61492.63353803367" name="Ferndale Close" isBlocking="false"/>
		<stopFacility id="1100PLA11178" x="250908.00115358722" y="61431.2205633219" name="School Drive" isBlocking="false"/>
		<stopFacility id="1100PLA11179" x="251120.98721037258" y="61632.16548641835" name="Skylark Rise" isBlocking="false"/>
		<stopFacility id="1100PLA11180" x="251226.02177160155" y="61664.80689214161" name="Church Park Road" isBlocking="false"/>
		<stopFacility id="1100PLX00055" x="250905.99759586228" y="61425.71367132169" name="School Drive" isBlocking="false"/>
		<stopFacility id="118000001" x="246387.0234863776" y="54187.9357989991" name="Emma Place Ope" isBlocking="false"/>
		<stopFacility id="118000002" x="247660.01837129332" y="54450.40868217757" name="Royal Parade" isBlocking="false"/>
		<stopFacility id="118000003" x="251701.98041206357" y="58831.81403115063" name="Weir Close" isBlocking="false"/>
		<stopFacility id="118000005" x="246839.00791987832" y="58459.982963475515" name="Cobbett Road" isBlocking="false"/>
		<stopFacility id="118000006" x="249894.00082408937" y="58199.731773220876" name="Shirburn Road" isBlocking="false"/>
		<stopFacility id="118000007" x="246519.99680607967" y="56894.713862572826" name="North Down Road West" isBlocking="false"/>
		<stopFacility id="118000008" x="251207.01073775918" y="59010.428745006764" name="Leypark Walk Top" isBlocking="false"/>
		<stopFacility id="118000009" x="251166.03978693616" y="58853.58053154423" name="Estover Health Centre" isBlocking="false"/>
		<stopFacility id="118000010" x="247241.97886051045" y="58950.14955467507" name="Matalan" isBlocking="false"/>
		<stopFacility id="118000012" x="251583.01596659227" y="56380.551571968856" name="Crabtree Close" isBlocking="false"/>
		<stopFacility id="118000013" x="247553.96429360006" y="60557.93892799708" name="Cheshire Drive" isBlocking="false"/>
		<stopFacility id="118000014" x="247534.0127363041" y="60556.29021992328" name="Cheshire Drive" isBlocking="false"/>
		<stopFacility id="118000015" x="245065.98513348788" y="55202.38928474445" name="Torpoint Ferry" isBlocking="false"/>
		<stopFacility id="118000016" x="250000.0053954779" y="60079.431417035026" name="Runway Road" isBlocking="false"/>
		<stopFacility id="118000017" x="249951.00506946177" y="60148.70094101169" name="Runway Road" isBlocking="false"/>
		<stopFacility id="118000020" x="251740.0254350209" y="56543.04476277137" name="Sainsbury Superstore" isBlocking="false"/>
		<stopFacility id="118000021" x="247768.01751993524" y="54451.747010709165" name="Royal Parade" isBlocking="false"/>
		<stopFacility id="118000024" x="245472.9668694742" y="57089.9416394789" name="Saltash Road" isBlocking="false"/>
		<stopFacility id="118000027" x="247712.9868984658" y="54451.107286902814" name="Royal Parade" isBlocking="false"/>
		<stopFacility id="118000028" x="249919.04076012629" y="59874.7691840528" name="Marjons" isBlocking="false"/>
		<stopFacility id="118000029" x="247518.02845548157" y="54484.547979323135" name="Derry's Cross North" isBlocking="false"/>
		<stopFacility id="118000033" x="249795.0102110308" y="59623.487197434995" name="Derriford Hospital" isBlocking="false"/>
		<stopFacility id="118000034" x="249818.01031897447" y="59617.26875328264" name="Derriford Hospital" isBlocking="false"/>
		<stopFacility id="118000035" x="249843.02344875477" y="59614.33126339372" name="Derriford Hospital" isBlocking="false"/>
		<stopFacility id="118000036" x="249910.02066743796" y="59620.213639914" name="Derriford Hospital" isBlocking="false"/>
		<stopFacility id="118000040" x="253854.9763490633" y="55872.11563081178" name="Copse Road" isBlocking="false"/>
		<stopFacility id="118000041" x="253857.0262282924" y="55866.495556095935" name="Copse Road" isBlocking="false"/>
		<stopFacility id="118000042" x="253889.97217637883" y="53790.458689858235" name="Hercules Way" isBlocking="false"/>
		<stopFacility id="118000043" x="253889.99327659688" y="53793.796103439" name="Hercules Way" isBlocking="false"/>
		<stopFacility id="118000044" x="254276.98142880722" y="53901.05332570663" name="Sherford Vale School" isBlocking="false"/>
		<stopFacility id="118000045" x="249160.99984982368" y="56000.756074361416" name="Rockingham Road Bottom" isBlocking="false"/>
		<stopFacility id="118000046" x="248972.02058965142" y="55835.91093318784" name="Ashford Road" isBlocking="false"/>
		<stopFacility id="118000047" x="249270.01712778615" y="55881.921110939526" name="Ashford Close" isBlocking="false"/>
		<stopFacility id="118000048" x="249123.00486938874" y="55823.80663403674" name="Elm Crescent" isBlocking="false"/>
		<stopFacility id="118000051" x="248879.00275045863" y="56347.08468034261" name="Compton Avenue" isBlocking="false"/>
		<stopFacility id="118000052" x="249174.00039441808" y="56326.41092104724" name="Culme Avenue" isBlocking="false"/>
		<stopFacility id="118000053" x="249207.01563642628" y="56221.98536815867" name="Rockingham Road Top" isBlocking="false"/>
		<stopFacility id="118000056" x="244558.0229614374" y="58427.64058405961" name="Stirling Road East" isBlocking="false"/>
		<stopFacility id="1180033077" x="248074.02593483124" y="54941.44065028228" name="University" isBlocking="false"/>
		<stopFacility id="1180033078" x="251275.9813027722" y="58031.53276098461" name="Sheepstor Road" isBlocking="false"/>
		<stopFacility id="1180033079" x="248355.9861035303" y="61105.648885917646" name="Kinniard Crescent" isBlocking="false"/>
		<stopFacility id="1180033081" x="248693.00780349004" y="54686.667702208826" name="Friary Surgery" isBlocking="false"/>
		<stopFacility id="1180033082" x="246790.99824407283" y="56119.05107029021" name="Milehouse LC 2" isBlocking="false"/>
		<stopFacility id="1180033084" x="247043.98125728662" y="55784.572909642506" name="Cuffe Road" isBlocking="false"/>
		<stopFacility id="1180FWX38753" x="245218.01119898533" y="55271.374719865475" name="Ferry Road" isBlocking="false"/>
		<stopFacility id="1180PCX00005" x="246839.97316244195" y="55962.959563650686" name="Bus Depot" isBlocking="false"/>
		<stopFacility id="1180PCX38435" x="249672.98459825528" y="55839.28013583936" name="Efford Lane" isBlocking="false"/>
		<stopFacility id="1180PCX38436" x="251315.00810659962" y="53332.63572166031" name="Dean Cross Road" isBlocking="false"/>
		<stopFacility id="1180PCX38438" x="253465.99803934802" y="53196.905315864366" name="Station Road" isBlocking="false"/>
		<stopFacility id="1180PCX38439" x="253595.98456208422" y="53241.14812422855" name="Vinery Lane" isBlocking="false"/>
		<stopFacility id="1180PCX38440" x="253866.9962907684" y="53291.50720582504" name="Brookwood Road" isBlocking="false"/>
		<stopFacility id="1180PCX38442" x="254605.04836021402" y="55676.724796117545" name="Longbrook Street" isBlocking="false"/>
		<stopFacility id="1180PCX38444" x="254371.96851568884" y="56171.60631736909" name="Garage" isBlocking="false"/>
		<stopFacility id="1180PCX38445" x="254164.99507003382" y="55894.70053965217" name="Sydney Close" isBlocking="false"/>
		<stopFacility id="1180PCX38449" x="249755.9962724823" y="55953.75268243809" name="Western Drive" isBlocking="false"/>
		<stopFacility id="1180PCX38451" x="248408.0323124785" y="54680.37100378607" name="Gasking Street" isBlocking="false"/>
		<stopFacility id="1180PCX38452" x="248459.00674855078" y="54648.86524579639" name="St Theresas Court" isBlocking="false"/>
		<stopFacility id="1180PCX38453" x="248260.99184558634" y="54672.351884722535" name="Lanyon House" isBlocking="false"/>
		<stopFacility id="1180PCX38469" x="248742.02580816575" y="55454.15324647943" name="Queens Road Triangle" isBlocking="false"/>
		<stopFacility id="1180PCX38470" x="249011.9821742289" y="55369.65237218683" name="Queens Road East" isBlocking="false"/>
		<stopFacility id="1180PCX38471" x="249002.01540727806" y="55384.402591941616" name="Queens Road East" isBlocking="false"/>
		<stopFacility id="1180PCX38483" x="246492.0118353589" y="59915.528304529755" name="Milford Lane" isBlocking="false"/>
		<stopFacility id="1180PCX38487" x="248976.96807251367" y="60045.19973328695" name="Notre Dame School Grounds" isBlocking="false"/>
		<stopFacility id="1180PCX38489" x="248018.0448993953" y="57258.63936700803" name="Effingham Crescent" isBlocking="false"/>
		<stopFacility id="1180PCX38490" x="248025.03850740218" y="57271.7908069813" name="Effingham Crescent" isBlocking="false"/>
		<stopFacility id="1180PCY38493" x="247086.99629852208" y="54571.557464571844" name="Octagon Street" isBlocking="false"/>
		<stopFacility id="1180PCY38495" x="248197.9727809557" y="53925.299327832094" name="Lambhay Hill" isBlocking="false"/>
		<stopFacility id="1180PCY38496" x="247241.01065705676" y="53953.98665761034" name="Walker Terrace" isBlocking="false"/>
		<stopFacility id="1180PCY38497" x="247279.99534325994" y="54133.12254102051" name="St Andrews School" isBlocking="false"/>
		<stopFacility id="1180PCY38499" x="246949.01371146704" y="54245.069832839275" name="Martin Street" isBlocking="false"/>
		<stopFacility id="1180PCY38505" x="245948.00653974054" y="54921.77570797459" name="City College Plymouth" isBlocking="false"/>
		<stopFacility id="1180PCY38506" x="244876.95919155274" y="59894.89827022623" name="New Chivenor Avenue" isBlocking="false"/>
		<stopFacility id="1180PCY38508" x="251244.00732731208" y="58494.20465084538" name="Novorossisk Road" isBlocking="false"/>
		<stopFacility id="1180PCY38509" x="251243.98616476526" y="58556.51651596371" name="Novorossisk Footpath" isBlocking="false"/>
		<stopFacility id="1180PCY38510" x="251032.0001298207" y="59165.58225194743" name="Dover Road West" isBlocking="false"/>
		<stopFacility id="1180PCY38511" x="249410.96706843612" y="59815.810124029085" name="Jack Rabbit" isBlocking="false"/>
		<stopFacility id="1180PCY38513" x="251950.0151057261" y="56794.18432403382" name="Argosy House" isBlocking="false"/>
		<stopFacility id="1180PCY38514" x="252309.03050675435" y="56736.283963223774" name="Woodford Avenue" isBlocking="false"/>
		<stopFacility id="1180PCY38516" x="253982.01679026583" y="56625.21705232895" name="Tory Brook" isBlocking="false"/>
		<stopFacility id="1180PCY38517" x="254956.01330413343" y="55392.24819791154" name="Magdalen Gardens" isBlocking="false"/>
		<stopFacility id="1180PCY38518" x="255355.02451860212" y="55754.045971264975" name="New Park Road" isBlocking="false"/>
		<stopFacility id="1180PCY38522" x="248323.97654270154" y="57875.19432556126" name="Manadon Roundabout" isBlocking="false"/>
		<stopFacility id="1180PCY38529" x="249411.98772631687" y="61056.467608470004" name="Oakwood Primary School" isBlocking="false"/>
		<stopFacility id="1180PLA01834" x="251425.00703355417" y="59898.89733800336" name="Estover Road" isBlocking="false"/>
		<stopFacility id="1180PLA01835" x="251574.0165266401" y="59909.167273533065" name="Estover Close" isBlocking="false"/>
		<stopFacility id="1180PLA01836" x="251728.97254533568" y="59739.01697596567" name="Estover Road" isBlocking="false"/>
		<stopFacility id="1180PLA01837" x="251711.00639692903" y="59552.58861022204" name="Wrigleys" isBlocking="false"/>
		<stopFacility id="1180PLA01842" x="251489.00744304727" y="52459.84781558931" name="Green Park Road" isBlocking="false"/>
		<stopFacility id="1180PLA01845" x="251363.0288202139" y="57140.03472214023" name="St Modwen Road" isBlocking="false"/>
		<stopFacility id="1180PLA01846" x="248473.9975144499" y="57638.32532872664" name="Maitland Drive" isBlocking="false"/>
		<stopFacility id="1180PLA01847" x="248553.01657611187" y="57561.50493364112" name="Kneele Gardens Shops" isBlocking="false"/>
		<stopFacility id="1180PLA01849" x="252049.00779895668" y="53414.406333179126" name="Shortwood Crescent" isBlocking="false"/>
		<stopFacility id="1180PLA01850" x="252084.03036924888" y="53539.15925779517" name="Campbell Road" isBlocking="false"/>
		<stopFacility id="1180PLA01851" x="252075.02508237382" y="53603.94690487682" name="Broadland Gardens" isBlocking="false"/>
		<stopFacility id="1180PLA01852" x="245766.00682408395" y="57987.155220437155" name="Weston Mill Hill Flyover" isBlocking="false"/>
		<stopFacility id="1180PLA01853" x="247344.9814614544" y="57532.87601640227" name="Honicknowle Lane" isBlocking="false"/>
		<stopFacility id="1180PLA01854" x="251648.0008889767" y="58967.967900561576" name="Towers Close" isBlocking="false"/>
		<stopFacility id="1180PLA01859" x="248188.0160636108" y="59897.6002066388" name="Tamerton Foliot Road Hill" isBlocking="false"/>
		<stopFacility id="1180PLA01860" x="248207.97946892862" y="59862.530911660084" name="Tamerton Foliot Road Hill" isBlocking="false"/>
		<stopFacility id="1180PLA01861" x="247976.97424677588" y="60461.159853948135" name="Southway Drive Steps" isBlocking="false"/>
		<stopFacility id="1180PLA01862" x="245881.95568592448" y="56118.79498643911" name="Craigmore Avenue" isBlocking="false"/>
		<stopFacility id="1180PLA01863" x="248376.01561687182" y="55654.92255176263" name="Ermington Terrace" isBlocking="false"/>
		<stopFacility id="1180PLA01866" x="247077.0159422157" y="54568.50810079597" name="Octagon Street" isBlocking="false"/>
		<stopFacility id="1180PLA01867" x="246974.02397173343" y="54604.87198538429" name="King Street Shops" isBlocking="false"/>
		<stopFacility id="1180PLA06903" x="249298.95218397223" y="59164.72824601323" name="Peninsular Radiology" isBlocking="false"/>
		<stopFacility id="1180PLA06904" x="249864.00006334574" y="60773.18676903838" name="Roborough Surgery" isBlocking="false"/>
		<stopFacility id="1180PLA06905" x="249534.03238947794" y="59875.72332620155" name="Plymbridge Lane" isBlocking="false"/>
		<stopFacility id="1180PLA06906" x="250792.98366097047" y="53287.26034933209" name="Randwick Park Road" isBlocking="false"/>
		<stopFacility id="1180PLA06907" x="250645.04055128276" y="52502.53718091955" name="Radford Dip" isBlocking="false"/>
		<stopFacility id="1180PLA06908" x="245361.98073212526" y="58873.60694800975" name="Plaistow School" isBlocking="false"/>
		<stopFacility id="1180PLA06911" x="249080.02849768236" y="59224.39684268049" name="Future Inns" isBlocking="false"/>
		<stopFacility id="1180PLA06912" x="249115.9665509124" y="59173.29635310671" name="Land Registry" isBlocking="false"/>
		<stopFacility id="1180PLA06913" x="249245.9866825135" y="59177.368632405676" name="Peninsular Radiology" isBlocking="false"/>
		<stopFacility id="1180PLA06914" x="249499.97333199938" y="59075.5361615789" name="Bircham House" isBlocking="false"/>
		<stopFacility id="1180PLA06915" x="249746.03296815083" y="58937.22244521268" name="Brest Road South" isBlocking="false"/>
		<stopFacility id="1180PLA06917" x="246382.96452578253" y="60047.782334893476" name="Milford Lane Middle" isBlocking="false"/>
		<stopFacility id="1180PLA06918" x="246387.97976548123" y="60019.81743797989" name="Milford Lane Middle" isBlocking="false"/>
		<stopFacility id="1180PLA06919" x="249685.97834774686" y="59160.363822913874" name="South West Media" isBlocking="false"/>
		<stopFacility id="1180PLA06923" x="253302.01949149655" y="52933.300217122654" name="Knapps Close" isBlocking="false"/>
		<stopFacility id="1180PLA06924" x="250635.02459616782" y="52470.5519703078" name="Radford Dip" isBlocking="false"/>
		<stopFacility id="1180PLA06927" x="249818.02292201668" y="55357.80152980136" name="Crossway Avenue" isBlocking="false"/>
		<stopFacility id="1180PLA06930" x="249440.98346647475" y="59260.81806745002" name="TA Centre" isBlocking="false"/>
		<stopFacility id="1180PLA06931" x="249360.0319254473" y="59503.47677933372" name="Brest Road Post Boxes" isBlocking="false"/>
		<stopFacility id="1180PLA06932" x="249370.00922714526" y="59504.30460586029" name="Ambulance Station" isBlocking="false"/>
		<stopFacility id="1180PLA06933" x="253395.99219226997" y="57233.399973922875" name="Crossway Green" isBlocking="false"/>
		<stopFacility id="1180PLA06934" x="253439.98974252294" y="57247.75577965801" name="The Mead" isBlocking="false"/>
		<stopFacility id="1180PLA06935" x="253591.9969045729" y="57245.763178092864" name="Crossway" isBlocking="false"/>
		<stopFacility id="1180PLA06936" x="253630.9803588381" y="57235.780754271196" name="Crossway" isBlocking="false"/>
		<stopFacility id="1180PLA06937" x="253989.0094576536" y="57238.1053778138" name="Crossway East" isBlocking="false"/>
		<stopFacility id="1180PLA06938" x="253953.0103602827" y="57248.00256836106" name="Crossway East" isBlocking="false"/>
		<stopFacility id="1180PLA06939" x="244644.9999700712" y="58620.92667532558" name="Normandy Way" isBlocking="false"/>
		<stopFacility id="1180PLA06946" x="250082.97093466425" y="60784.760383691144" name="The George P&amp;R" isBlocking="false"/>
		<stopFacility id="1180PLA06949" x="251643.0064604056" y="53218.8268581263" name="Maple Court" isBlocking="false"/>
		<stopFacility id="1180PLA06950" x="252303.96328608447" y="52188.892102687474" name="Shapleys Gardens" isBlocking="false"/>
		<stopFacility id="1180PLA06951" x="247859.97798043935" y="56993.91103053946" name="Burleigh Park Road" isBlocking="false"/>
		<stopFacility id="1180PLA10004" x="246283.02240828334" y="53969.52427958461" name="Admiral's Hard" isBlocking="false"/>
		<stopFacility id="1180PLA10014" x="246804.00104837713" y="56108.65919930485" name="Milehouse LC 1" isBlocking="false"/>
		<stopFacility id="1180PLA10015" x="246443.99266820578" y="56350.565519770695" name="Queens House" isBlocking="false"/>
		<stopFacility id="1180PLA10018" x="246245.99786208288" y="56416.414920916344" name="Ford Shops" isBlocking="false"/>
		<stopFacility id="1180PLA10019" x="246117.98267127172" y="56544.7716773352" name="Lidls" isBlocking="false"/>
		<stopFacility id="1180PLA10020" x="245755.00178130914" y="56855.80536785064" name="Wolseley Road Flats" isBlocking="false"/>
		<stopFacility id="1180PLA10022" x="245296.9816320119" y="57298.73031714192" name="Camels Head Dockyard" isBlocking="false"/>
		<stopFacility id="1180PLA10023" x="245025.98898708224" y="57539.24573092378" name="Harbour Avenue" isBlocking="false"/>
		<stopFacility id="1180PLA10024" x="244748.98771169494" y="58014.74669035818" name="St Budeaux Square 1" isBlocking="false"/>
		<stopFacility id="1180PLA10025" x="244644.00845468853" y="58195.878438456944" name="Victoria Road Bottom" isBlocking="false"/>
		<stopFacility id="1180PLA10026" x="244677.0268168147" y="58471.98575639457" name="Evelyn Street" isBlocking="false"/>
		<stopFacility id="1180PLA10027" x="244835.98335144116" y="58687.63745812839" name="Bickham Road" isBlocking="false"/>
		<stopFacility id="1180PLA10028" x="244923.98035499282" y="58768.50814773294" name="Verna Road" isBlocking="false"/>
		<stopFacility id="1180PLA10030" x="245142.03079052942" y="58941.25949660703" name="Victoria Road Top" isBlocking="false"/>
		<stopFacility id="1180PLA10031" x="245266.00731231726" y="59019.966856254876" name="Roman Way" isBlocking="false"/>
		<stopFacility id="1180PLA10032" x="245095.9707042727" y="58854.70310976761" name="Row Lane" isBlocking="false"/>
		<stopFacility id="1180PLA10033" x="244986.0059604271" y="58781.15163202779" name="Victoria Road Tennis Courts" isBlocking="false"/>
		<stopFacility id="1180PLA10034" x="244715.9944753947" y="58515.3496947278" name="Evelyn Street" isBlocking="false"/>
		<stopFacility id="1180PLA10035" x="244663.99740181878" y="58200.85392000474" name="Victoria Road Library" isBlocking="false"/>
		<stopFacility id="1180PLA10036" x="244761.02154230175" y="58046.66295459439" name="St Budeaux Square 2" isBlocking="false"/>
		<stopFacility id="1180PLA10037" x="245040.04292657002" y="57545.509734494495" name="Harbour Avenue" isBlocking="false"/>
		<stopFacility id="1180PLA10038" x="245288.00049556379" y="57349.067674003774" name="Weston Mill Primary School" isBlocking="false"/>
		<stopFacility id="1180PLA10039" x="245446.02546775946" y="57158.608438726194" name="Camels Head Post Office" isBlocking="false"/>
		<stopFacility id="1180PLA10040" x="245804.9947315672" y="56857.6834096284" name="Cookworthy Road" isBlocking="false"/>
		<stopFacility id="1180PLA10041" x="245975.978048546" y="56734.74121083823" name="Austin Avenue" isBlocking="false"/>
		<stopFacility id="1180PLA10042" x="246136.99447609115" y="56557.57066350375" name="Lidls" isBlocking="false"/>
		<stopFacility id="1180PLA10043" x="246273.99783948125" y="56417.82523596674" name="North Prospect Library" isBlocking="false"/>
		<stopFacility id="1180PLA10044" x="246559.980648416" y="56329.39017021077" name="Queens House" isBlocking="false"/>
		<stopFacility id="1180PLA10045" x="246892.96632263914" y="56045.9912888339" name="Milehouse LC 6" isBlocking="false"/>
		<stopFacility id="1180PLA10046" x="245358.96284119037" y="58967.16738034386" name="Priestley Avenue" isBlocking="false"/>
		<stopFacility id="1180PLA10048" x="245346.97392395415" y="58987.548479478806" name="Priestley Avenue" isBlocking="false"/>
		<stopFacility id="1180PLA10049" x="245350.97666825974" y="58857.238023137936" name="Plaistow School" isBlocking="false"/>
		<stopFacility id="1180PLA10050" x="245399.0101120051" y="58613.248570119" name="Marine Academy" isBlocking="false"/>
		<stopFacility id="1180PLA10051" x="245387.96458811147" y="58639.16568188506" name="Marine Academy" isBlocking="false"/>
		<stopFacility id="1180PLA10052" x="245310.00071430966" y="58272.013785377436" name="Weston Mill Road" isBlocking="false"/>
		<stopFacility id="1180PLA10053" x="245349.97571943878" y="58201.851095810125" name="Moor Lane" isBlocking="false"/>
		<stopFacility id="1180PLA10054" x="245348.9955331344" y="58182.96289120379" name="Moor Lane" isBlocking="false"/>
		<stopFacility id="1180PLA10055" x="245416.02141872034" y="58201.02897124557" name="Flamsteed Crescent" isBlocking="false"/>
		<stopFacility id="1180PLA10056" x="245424.0303040767" y="58195.23059982431" name="Flamstead Crescent" isBlocking="false"/>
		<stopFacility id="1180PLA10057" x="245591.00254041277" y="58274.91250999851" name="Kings Tamerton Road" isBlocking="false"/>
		<stopFacility id="1180PLA10058" x="245666.00827042284" y="58480.80421445944" name="Telford Crescent" isBlocking="false"/>
		<stopFacility id="1180PLA10059" x="245752.99979967487" y="58522.77112101205" name="Coombe Way" isBlocking="false"/>
		<stopFacility id="1180PLA10060" x="245785.9727004932" y="58728.78021040259" name="Cayley Way" isBlocking="false"/>
		<stopFacility id="1180PLA10061" x="245782.02244115082" y="58744.474255631765" name="Cayley Way" isBlocking="false"/>
		<stopFacility id="1180PLA10062" x="245489.96764906176" y="58793.077207838855" name="Kings Tamerton Reservoir" isBlocking="false"/>
		<stopFacility id="1180PLA10063" x="245442.9797310147" y="58776.64912073579" name="Reservoir" isBlocking="false"/>
		<stopFacility id="1180PLA10064" x="244848.99832701386" y="58612.699423501064" name="Chard Road" isBlocking="false"/>
		<stopFacility id="1180PLA10065" x="245038.99938443658" y="58522.546519610594" name="Wakefield Avenue" isBlocking="false"/>
		<stopFacility id="1180PLA10066" x="245308.03396760393" y="58384.46030172016" name="Byard Close" isBlocking="false"/>
		<stopFacility id="1180PLA10067" x="245237.01164882566" y="58414.36163854238" name="Peters Park Close" isBlocking="false"/>
		<stopFacility id="1180PLA10068" x="244943.0061839589" y="58566.53847894943" name="Wakefield Avenue" isBlocking="false"/>
		<stopFacility id="1180PLA10069" x="244778.01197244294" y="58029.471762637084" name="St Budeaux Square 3" isBlocking="false"/>
		<stopFacility id="1180PLA10071" x="247012.97378671114" y="61054.312480680004" name="Horsham Lane" isBlocking="false"/>
		<stopFacility id="1180PLA10072" x="247240.98418533007" y="54228.83237898216" name="Durley House" isBlocking="false"/>