<?xml version="1.0" encoding="UTF-8"?>
<!DOCTYPE transitSchedule SYSTEM "http://www.matsim.org/files/dtd/transitSchedule_v2.dtd">

<transitSchedule>

	<transitStops>
		<stopFacility id="1100PLA11176" x="250557.97370897458" y="61511.231802968075" name="Long Park Drive" isBlocking="false"/>
		<stopFacility id="1100PLA11177" x="250586.0165065051" y="61492.63353803367" name="Ferndale Close" isBlocking="false"/>
		<stopFacility id="1100PLA11178" x="250908.00115358722" y="61431.2205633219" name="School Drive" isBlocking="false"/>
		<stopFacility id="1100PLA11179" x="251120.98721037258" y="61632.16548641835" name="Skylark Rise" isBlocking="false"/>
		<stopFacility id="1100PLA11180" x="251226.02177160155" y="61664.80689214161" name="Church Park Road" isBlocking="false"/>
		<stopFacility id="1100PLX00055" x="250905.99759586228" y="61425.71367132169" name="School Drive" isBlocking="false"/>
		<stopFacility id="118000001" x="246387.0234863776" y="54187.9357989991" name="Emma Place Ope" isBlocking="false"/>
		<stopFacility id="118000003" x="251701.98041206357" y="58831.81403115063" name="Weir Close" isBlocking="false"/>
		<stopFacility id="118000005" x="246839.00791987832" y="58459.982963475515" name="Cobbett Road" isBlocking="false"/>
		<stopFacility id="118000006" x="249894.00082408937" y="58199.731773220876" name="Shirburn Road" isBlocking="false"/>
		<stopFacility id="118000007" x="246519.99680607967" y="56894.713862572826" name="North Down Road West" isBlocking="false"/>
		<stopFacility id="118000008" x="251207.01073775918" y="59010.428745006764" name="Leypark Walk Top" isBlocking="false"/>
		<stopFacility id="118000009" x="251166.03978693616" y="58853.58053154423" name="Estover Health Centre" isBlocking="false"/>
		<stopFacility id="118000010" x="247241.97886051045" y="58950.14955467507" name="Matalan" isBlocking="false"/>
		<stopFacility id="118000013" x="247553.96429360006" y="60557.93892799708" name="Cheshire Drive" isBlocking="false"/>
		<stopFacility id="118000014" x="247534.0127363041" y="60556.29021992328" name="Cheshire Drive" isBlocking="false"/>
		<stopFacility id="118000015" x="245065.98513348788" y="55202.38928474445" name="Torpoint Ferry" isBlocking="false"/>
		<stopFacility id="118000016" x="250000.0053954779" y="60079.431417035026" name="Runway Road" isBlocking="false"/>
		<stopFacility id="118000017" x="249951.00506946177" y="60148.70094101169" name="Runway Road" isBlocking="false"/>
		<stopFacility id="118000021" x="247768.01751993524" y="54451.747010709165" name="Royal Parade" isBlocking="false"/>
		<stopFacility id="118000024" x="245472.9668694742" y="57089.9416394789" name="Saltash Road" isBlocking="false"/>
		<stopFacility id="118000028" x="249919.04076012629" y="59874.7691840528" name="Marjons" isBlocking="false"/>
		<stopFacility id="118000029" x="247518.02845548157" y="54484.547979323135" name="Derry's Cross North" isBlocking="false"/>
		<stopFacility id="118000033" x="249795.0102110308" y="59623.487197434995" name="Derriford Hospital" isBlocking="false"/>
		<stopFacility id="118000034" x="249818.01031897447" y="59617.26875328264" name="Derriford Hospital" isBlocking="false"/>
		<stopFacility id="118000035" x="249843.02344875477" y="59614.33126339372" name="Derriford Hospital" isBlocking="false"/>
		<stopFacility id="118000036" x="249910.02066743796" y="59620.213639914" name="Derriford Hospital" isBlocking="false"/>
		<stopFacility id="118000056" x="244558.0229614374" y="58427.64058405961" name="Stirling Road East" isBlocking="false"/>
		<stopFacility id="1180033077" x="248074.02593483124" y="54941.44065028228" name="University" isBlocking="false"/>
		<stopFacility id="1180033078" x="251275.9813027722" y="58031.53276098461" name="Sheepstor Road" isBlocking="false"/>
		<stopFacility id="1180033079" x="248355.9861035303" y="61105.648885917646" name="Kinniard Crescent" isBlocking="false"/>
		<stopFacility id="1180033081" x="248693.00780349004" y="54686.667702208826" name="Friary Surgery" isBlocking="false"/>
		<stopFacility id="1180033082" x="246790.99824407283" y="56119.05107029021" name="Milehouse LC 2" isBlocking="false"/>
		<stopFacility id="1180033084" x="247043.98125728662" y="55784.572909642506" name="Cuffe Road" isBlocking="false"/>
		<stopFacility id="1180FWX38753" x="245218.01119898533" y="55271.374719865475" name="Ferry Road" isBlocking="false"/>
		<stopFacility id="1180PCX00005" x="246839.97316244195" y="55962.959563650686" name="Bus Depot" isBlocking="false"/>
		<stopFacility id="1180PCX38435" x="249672.98459825528" y="55839.28013583936" name="Efford Lane" isBlocking="false"/>
		<stopFacility id="1180PCX38449" x="249755.9962724823" y="55953.75268243809" name="Western Drive" isBlocking="false"/>
		<stopFacility id="1180PCX38451" x="248408.0323124785" y="54680.37100378607" name="Gasking Street" isBlocking="false"/>
		<stopFacility id="1180PCX38452" x="248459.00674855078" y="54648.86524579639" name="St Theresas Court" isBlocking="false"/>
		<stopFacility id="1180PCX38453" x="248260.99184558634" y="54672.351884722535" name="Lanyon House" isBlocking="false"/>
		<stopFacility id="1180PCX38469" x="248742.02580816575" y="55454.15324647943" name="Queens Road Triangle" isBlocking="false"/>
		<stopFacility id="1180PCX38470" x="249011.9821742289" y="55369.65237218683" name="Queens Road East" isBlocking="false"/>
		<stopFacility id="1180PCX38471" x="249002.01540727806" y="55384.402591941616" name="Queens Road East" isBlocking="false"/>
		<stopFacility id="1180PCX38483" x="246492.0118353589" y="59915.528304529755" name="Milford Lane" isBlocking="false"/>
		<stopFacility id="1180PCX38487" x="248976.96807251367" y="60045.19973328695" name="Notre Dame School Grounds" isBlocking="false"/>
		<stopFacility id="1180PCX38490" x="248025.03850740218" y="57271.7908069813" name="Effingham Crescent" isBlocking="false"/>
		<stopFacility id="1180PCY38493" x="247086.99629852208" y="54571.557464571844" name="Octagon Street" isBlocking="false"/>
		<stopFacility id="1180PCY38495" x="248197.9727809557" y="53925.299327832094" name="Lambhay Hill" isBlocking="false"/>
		<stopFacility id="1180PCY38496" x="247241.01065705676" y="53953.98665761034" name="Walker Terrace" isBlocking="false"/>
		<stopFacility id="1180PCY38497" x="247279.99534325994" y="54133.12254102051" name="St Andrews School" isBlocking="false"/>
		<stopFacility id="1180PCY38499" x="246949.01371146704" y="54245.069832839275" name="Martin Street" isBlocking="false"/>
		<stopFacility id="1180PCY38505" x="245948.00653974054" y="54921.77570797459" name="City College Plymouth" isBlocking="false"/>
		<stopFacility id="1180PCY38506" x="244876.95919155274" y="59894.89827022623" name="New Chivenor Avenue" isBlocking="false"/>
		<stopFacility id="1180PCY38508" x="251244.00732731208" y="58494.20465084538" name="Novorossisk Road" isBlocking="false"/>
		<stopFacility id="1180PCY38509" x="251243.98616476526" y="58556.51651596371" name="Novorossisk Footpath" isBlocking="false"/>
		<stopFacility id="1180PCY38510" x="251032.0001298207" y="59165.58225194743" name="Dover Road West" isBlocking="false"/>
		<stopFacility id="1180PCY38513" x="251950.0151057261" y="56794.18432403382" name="Argosy House" isBlocking="false"/>
		<stopFacility id="1180PCY38522" x="248323.97654270154" y="57875.19432556126" name="Manadon Roundabout" isBlocking="false"/>
		<stopFacility id="1180PCY38529" x="249411.98772631687" y="61056.467608470004" name="Oakwood Primary School" isBlocking="false"/>
		<stopFacility id="1180PLA01834" x="251425.00703355417" y="59898.89733800336" name="Estover Road" isBlocking="false"/>
		<stopFacility id="1180PLA01835" x="251574.0165266401" y="59909.167273533065" name="Estover Close" isBlocking="false"/>
		<stopFacility id="1180PLA01836" x="251728.97254533568" y="59739.01697596567" name="Estover Road" isBlocking="false"/>
		<stopFacility id="1180PLA01837" x="251711.00639692903" y="59552.58861022204" name="Wrigleys" isBlocking="false"/>
		<stopFacility id="1180PLA01845" x="251363.0288202139" y="57140.03472214023" name="St Modwen Road" isBlocking="false"/>
		<stopFacility id="1180PLA01852" x="245766.00682408395" y="57987.155220437155" name="Weston Mill Hill Flyover" isBlocking="false"/>
		<stopFacility id="1180PLA01853" x="247344.9814614544" y="57532.87601640227" name="Honicknowle Lane" isBlocking="false"/>
		<stopFacility id="1180PLA01854" x="251648.0008889767" y="58967.967900561576" name="Towers Close" isBlocking="false"/>
		<stopFacility id="1180PLA01859" x="248188.0160636108" y="59897.6002066388" name="Tamerton Foliot Road Hill" isBlocking="false"/>
		<stopFacility id="1180PLA01860" x="248207.97946892862" y="59862.530911660084" name="Tamerton Foliot Road Hill" isBlocking="false"/>
		<stopFacility id="1180PLA01861" x="247976.97424677588" y="60461.159853948135" name="Southway Drive Steps" isBlocking="false"/>
		<stopFacility id="1180PLA01862" x="245881.95568592448" y="56118.79498643911" name="Craigmore Avenue" isBlocking="false"/>
		<stopFacility id="1180PLA01863" x="248376.01561687182" y="55654.92255176263" name="Ermington Terrace" isBlocking="false"/>
		<stopFacility id="1180PLA01866" x="247077.0159422157" y="54568.50810079597" name="Octagon Street" isBlocking="false"/>
		<stopFacility id="1180PLA01867" x="246974.02397173343" y="54604.87198538429" name="King Street Shops" isBlocking="false"/>
		<stopFacility id="1180PLA06903" x="249298.95218397223" y="59164.72824601323" name="Peninsular Radiology" isBlocking="false"/>
		<stopFacility id="1180PLA06904" x="249864.00006334574" y="60773.18676903838" name="Roborough Surgery" isBlocking="false"/>
		<stopFacility id="1180PLA06905" x="249534.03238947794" y="59875.72332620155" name="Plymbridge Lane" isBlocking="false"/>
		<stopFacility id="1180PLA06908" x="245361.98073212526" y="58873.60694800975" name="Plaistow School" isBlocking="false"/>
		<stopFacility id="1180PLA06911" x="249080.02849768236" y="59224.39684268049" name="Future Inns" isBlocking="false"/>
		<stopFacility id="1180PLA06912" x="249115.9665509124" y="59173.29635310671" name="Land Registry" isBlocking="false"/>
		<stopFacility id="1180PLA06913" x="249245.9866825135" y="59177.368632405676" name="Peninsular Radiology" isBlocking="false"/>
		<stopFacility id="1180PLA06914" x="249499.97333199938" y="59075.5361615789" name="Bircham House" isBlocking="false"/>
		<stopFacility id="1180PLA06915" x="249746.03296815083" y="58937.22244521268" name="Brest Road South" isBlocking="false"/>
		<stopFacility id="1180PLA06917" x="246382.96452578253" y="60047.782334893476" name="Milford Lane Middle" isBlocking="false"/>
		<stopFacility id="1180PLA06918" x="246387.97976548123" y="60019.81743797989" name="Milford Lane Middle" isBlocking="false"/>
		<stopFacility id="1180PLA06919" x="249685.97834774686" y="59160.363822913874" name="South West Media" isBlocking="false"/>
		<stopFacility id="1180PLA06927" x="249818.02292201668" y="55357.80152980136" name="Crossway Avenue" isBlocking="false"/>
		<stopFacility id="1180PLA06930" x="249440.98346647475" y="59260.81806745002" name="TA Centre" isBlocking="false"/>
		<stopFacility id="1180PLA06931" x="249360.0319254473" y="59503.47677933372" name="Brest Road Post Boxes" isBlocking="false"/>
		<stopFacility id="1180PLA06932" x="249370.00922714526" y="59504.30460586029" name="Ambulance Station" isBlocking="false"/>
		<stopFacility id="1180PLA06939" x="244644.9999700712" y="58620.92667532558" name="Normandy Way" isBlocking="false"/>
		<stopFacility id="1180PLA06946" x="250082.97093466425" y="60784.760383691144" name="The George P&amp;R" isBlocking="false"/>
		<stopFacility id="1180PLA06951" x="247859.97798043935" y="56993.91103053946" name="Burleigh Park Road" isBlocking="false"/>
		<stopFacility id="1180PLA10004" x="246283.02240828334" y="53969.52427958461" name="Admiral's Hard" isBlocking="false"/>
		<stopFacility id="1180PLA10014" x="246804.00104837713" y="56108.65919930485" name="Milehouse LC 1" isBlocking="false"/>
		<stopFacility id="1180PLA10015" x="246443.99266820578" y="56350.565519770695" name="Queens House" isBlocking="false"/>
		<stopFacility id="1180PLA10018" x="246245.99786208288" y="56416.414920916344" name="Ford Shops" isBlocking="false"/>
		<stopFacility id="1180PLA10019" x="246117.98267127172" y="56544.7716773352" name="Lidls" isBlocking="false"/>
		<stopFacility id="1180PLA10020" x="245755.00178130914" y="56855.80536785064" name="Wolseley Road Flats" isBlocking="false"/>
		<stopFacility id="1180PLA10022" x="245296.9816320119" y="57298.73031714192" name="Camels Head Dockyard" isBlocking="false"/>
		<stopFacility id="1180PLA10023" x="245025.98898708224" y="57539.24573092378" name="Harbour Avenue" isBlocking="false"/>
		<stopFacility id="1180PLA10024" x="244748.98771169494" y="58014.74669035818" name="St Budeaux Square 1" isBlocking="false"/>
		<stopFacility id="1180PLA10025" x="244644.00845468853" y="58195.878438456944" name="Victoria Road Bottom" isBlocking="false"/>
		<stopFacility id="1180PLA10026" x="244677.0268168147" y="58471.98575639457" name="Evelyn Street" isBlocking="false"/>
		<stopFacility id="1180PLA10027" x="244835.98335144116" y="58687.63745812839" name="Bickham Road" isBlocking="false"/>
		<stopFacility id="1180PLA10028" x="244923.98035499282" y="58768.50814773294" name="Verna Road" isBlocking="false"/>
		<stopFacility id="1180PLA10030" x="245142.03079052942" y="58941.25949660703" name="Victoria Road Top" isBlocking="false"/>
		<stopFacility id="1180PLA10031" x="245266.00731231726" y="59019.966856254876" name="Roman Way" isBlocking="false"/>
		<stopFacility id="1180PLA10032" x="245095.9707042727" y="58854.70310976761" name="Row Lane" isBlocking="false"/>
		<stopFacility id="1180PLA10033" x="244986.0059604271" y="58781.15163202779" name="Victoria Road Tennis Courts" isBlocking="false"/>
		<stopFacility id="1180PLA10034" x="244715.9944753947" y="58515.3496947278" name="Evelyn Street" isBlocking="false"/>
		<stopFacility id="1180PLA10035" x="244663.99740181878" y="58200.85392000474" name="Victoria Road Library" isBlocking="false"/>
		<stopFacility id="1180PLA10036" x="244761.02154230175" y="58046.66295459439" name="St Budeaux Square 2" isBlocking="false"/>
		<stopFacility id="1180PLA10037" x="245040.04292657002" y="57545.509734494495" name="Harbour Avenue" isBlocking="false"/>
		<stopFacility id="1180PLA10038" x="245288.00049556379" y="57349.067674003774" name="Weston Mill Primary School" isBlocking="false"/>
		<stopFacility id="1180PLA10039" x="245446.02546775946" y="57158.608438726194" name="Camels Head Post Office" isBlocking="false"/>
		<stopFacility id="1180PLA10040" x="245804.9947315672" y="56857.6834096284" name="Cookworthy Road" isBlocking="false"/>
		<stopFacility id="1180PLA10041" x="245975.978048546" y="56734.74121083823" name="Austin Avenue" isBlocking="false"/>
		<stopFacility id="1180PLA10042" x="246136.99447609115" y="56557.57066350375" name="Lidls" isBlocking="false"/>
		<stopFacility id="1180PLA10043" x="246273.99783948125" y="56417.82523596674" name="North Prospect Library" isBlocking="false"/>
		<stopFacility id="1180PLA10044" x="246559.980648416" y="56329.39017021077" name="Queens House" isBlocking="false"/>
		<stopFacility id="1180PLA10045" x="246892.96632263914" y="56045.9912888339" name="Milehouse LC 6" isBlocking="false"/>
		<stopFacility id="1180PLA10046" x="245358.96284119037" y="58967.16738034386" name="Priestley Avenue" isBlocking="false"/>
		<stopFacility id="1180PLA10048" x="245346.97392395415" y="58987.548479478806" name="Priestley Avenue" isBlocking="false"/>
		<stopFacility id="1180PLA10049" x="245350.97666825974" y="58857.238023137936" name="Plaistow School" isBlocking="false"/>
		<stopFacility id="1180PLA10050" x="245399.0101120051" y="58613.248570119" name="Marine Academy" isBlocking="false"/>
		<stopFacility id="1180PLA10051" x="245387.96458811147" y="58639.16568188506" name="Marine Academy" isBlocking="false"/>
		<stopFacility id="1180PLA10052" x="245310.00071430966" y="58272.013785377436" name="Weston Mill Road" isBlocking="false"/>
		<stopFacility id="1180PLA10053" x="245349.97571943878" y="58201.851095810125" name="Moor Lane" isBlocking="false"/>
		<stopFacility id="1180PLA10054" x="245348.9955331344" y="58182.96289120379" name="Moor Lane" isBlocking="false"/>
		<stopFacility id="1180PLA10055" x="245416.02141872034" y="58201.02897124557" name="Flamsteed Crescent" isBlocking="false"/>
		<stopFacility id="1180PLA10056" x="245424.0303040767" y="58195.23059982431" name="Flamstead Crescent" isBlocking="false"/>
		<stopFacility id="1180PLA10057" x="245591.00254041277" y="58274.91250999851" name="Kings Tamerton Road" isBlocking="false"/>
		<stopFacility id="1180PLA10058" x="245666.00827042284" y="58480.80421445944" name="Telford Crescent" isBlocking="false"/>
		<stopFacility id="1180PLA10059" x="245752.99979967487" y="58522.77112101205" name="Coombe Way" isBlocking="false"/>
		<stopFacility id="1180PLA10060" x="245785.9727004932" y="58728.78021040259" name="Cayley Way" isBlocking="false"/>
		<stopFacility id="1180PLA10061" x="245782.02244115082" y="58744.474255631765" name="Cayley Way" isBlocking="false"/>
		<stopFacility id="1180PLA10062" x="245489.96764906176" y="58793.077207838855" name="Kings Tamerton Reservoir" isBlocking="false"/>
		<stopFacility id="1180PLA10063" x="245442.9797310147" y="58776.64912073579" name="Reservoir" isBlocking="false"/>
		<stopFacility id="1180PLA10064" x="244848.99832701386" y="58612.699423501064" name="Chard Road" isBlocking="false"/>
		<stopFacility id="1180PLA10065" x="245038.99938443658" y="58522.546519610594" name="Wakefield Avenue" isBlocking="false"/>
		<stopFacility id="1180PLA10066" x="245308.03396760393" y="58384.46030172016" name="Byard Close" isBlocking="false"/>
		<stopFacility id="1180PLA10067" x="245237.01164882566" y="58414.36163854238" name="Peters Park Close" isBlocking="false"/>
		<stopFacility id="1180PLA10068" x="244943.0061839589" y="58566.53847894943" name="Wakefield Avenue" isBlocking="false"/>
		<stopFacility id="1180PLA10069" x="244778.01197244294" y="58029.471762637084" name="St Budeaux Square 3" isBlocking="false"/>
		<stopFacility id="1180PLA10071" x="247012.97378671114" y="61054.312480680004" name="Horsham Lane" isBlocking="false"/>
		<stopFacility id="1180PLA10072" x="247240.98418533007" y="54228.83237898216" name="Durley House" isBlocking="false"/>
		<stopFacility id="1180PLA10074" x="247247.03824558714" y="54248.686564026226" name="New Continental Hotel" isBlocking="false"/>
		<stopFacility id="1180PLA10075" x="246909.97373627024" y="54246.20069870347" name="Phoenix Street" isBlocking="false"/>
		<stopFacility id="1180PLA10076" x="246672.95897872903" y="54169.617066889536" name="Caroline Place" isBlocking="false"/>
		<stopFacility id="1180PLA10077" x="246588.0072422055" y="54138.700412722596" name="Caroline Place" isBlocking="false"/>
		<stopFacility id="1180PLA10078" x="246457.03064411454" y="54150.29352826817" name="Market Street" isBlocking="false"/>
		<stopFacility id="1180PLA10079" x="246357.02073350456" y="53978.49985931796" name="Admiralty Street" isBlocking="false"/>
		<stopFacility id="1180PLA10080" x="246386.01170490967" y="53753.99617366356" name="St Paul's Church" isBlocking="false"/>
		<stopFacility id="1180PLA10081" x="246263.99197127463" y="53677.42667744472" name="Royal William Yard" isBlocking="false"/>
		<stopFacility id="1180PLA10082" x="246262.97048327548" y="54116.9895720543" name="Stonehall Flats" isBlocking="false"/>
		<stopFacility id="1180PLA10083" x="246292.0262819398" y="54323.11449204467" name="Newport Street" isBlocking="false"/>
		<stopFacility id="1180PLA10084" x="246303.99226300902" y="54328.33015152905" name="Newport Street" isBlocking="false"/>
		<stopFacility id="1180PLA10085" x="245591.97486964517" y="54488.1815571069" name="Cumberland Gardens" isBlocking="false"/>
		<stopFacility id="1180PLA10088" x="245255.99381665865" y="54430.132285238535" name="James Street" isBlocking="false"/>
		<stopFacility id="1180PLA10089" x="245377.02330840367" y="54504.48200819999" name="Duke Street" isBlocking="false"/>
		<stopFacility id="1180PLA10090" x="245638.95276825505" y="54495.71097894973" name="Raglan gardens" isBlocking="false"/>
		<stopFacility id="1180PLA10091" x="246007.03792331053" y="54449.36300660411" name="Devonport Hill" isBlocking="false"/>
		<stopFacility id="1180PLA10092" x="246040.99463579373" y="54435.02056343114" name="Richmond Walk" isBlocking="false"/>
		<stopFacility id="1180PLA10095" x="245741.04336300126" y="54896.65754606805" name="Devonport Park" isBlocking="false"/>
		<stopFacility id="1180PLA10096" x="245692.01502339577" y="54899.202032559755" name="Devonport Park" isBlocking="false"/>
		<stopFacility id="1180PLA10097" x="245405.02627073193" y="54809.66960726475" name="Fore Street Car Park" isBlocking="false"/>
		<stopFacility id="1180PLA10098" x="245476.0027001099" y="54854.328886737" name="Devonport Forum" isBlocking="false"/>
		<stopFacility id="1180PLA10099" x="246011.0006458905" y="54971.12561824199" name="Paradise Road" isBlocking="false"/>
		<stopFacility id="1180PLA10100" x="246114.97717868866" y="54971.43425135189" name="Paradise Road" isBlocking="false"/>
		<stopFacility id="1180PLA10101" x="246317.965891108" y="54979.991252903215" name="Paradise Road Dhs Boys" isBlocking="false"/>
		<stopFacility id="1180PLA10102" x="246297.0294504018" y="54967.24739150322" name="Paradise Road Dhs Boys" isBlocking="false"/>
		<stopFacility id="1180PLA10104" x="246375.97815518494" y="54980.52952318589" name="Paradise Road Dhs Boys" isBlocking="false"/>
		<stopFacility id="1180PLA10105" x="246396.998343986" y="54988.820277871506" name="Paradise Road Dhs Boys" isBlocking="false"/>
		<stopFacility id="1180PLA10106" x="246417.01661540064" y="55011.60589693466" name="Wilton Road" isBlocking="false"/>
		<stopFacility id="1180PLA10107" x="246421.02410831876" y="55002.5874543463" name="Edgecumbe Avenue" isBlocking="false"/>
		<stopFacility id="1180PLA10108" x="246462.02988880195" y="55020.31219706088" name="Wilton Road" isBlocking="false"/>
		<stopFacility id="1180PLA10109" x="246619.0099946797" y="54946.76238078365" name="Millbridge" isBlocking="false"/>
		<stopFacility id="1180PLA10110" x="246615.0221970319" y="54936.86348956096" name="Millbridge" isBlocking="false"/>
		<stopFacility id="1180PLA10111" x="246785.0360989349" y="54797.288860738685" name="Wyndham Lane" isBlocking="false"/>
		<stopFacility id="1180PLA10112" x="246848.97311588033" y="54695.28870503395" name="Stoke Road" isBlocking="false"/>
		<stopFacility id="1180PLA10113" x="246972.00617506975" y="54613.83231604358" name="King Street Shops" isBlocking="false"/>
		<stopFacility id="1180PLA10114" x="245147.0380948871" y="59160.327092653926" name="Ernesettle Crescent" isBlocking="false"/>
		<stopFacility id="1180PLA10115" x="245141.00092103687" y="59187.21063468669" name="Ernesettle Lane Top" isBlocking="false"/>
		<stopFacility id="1180PLA10116" x="245015.9905471732" y="59317.73664157174" name="Ernesettle Crescent West" isBlocking="false"/>
		<stopFacility id="1180PLA10117" x="244780.01330138373" y="59622.89606775818" name="Ernesettle Lane RNAD" isBlocking="false"/>
		<stopFacility id="1180PLA10118" x="244793.0462037071" y="59623.62537782997" name="Ernesettle Lane RNAD" isBlocking="false"/>
		<stopFacility id="1180PLA10121" x="244779.95257170565" y="59886.62421740513" name="Northolt Avenue" isBlocking="false"/>
		<stopFacility id="1180PLA10122" x="244897.01664550757" y="59982.217183614586" name="Northolt Avenue" isBlocking="false"/>
		<stopFacility id="1180PLA10123" x="244988.0130981445" y="60020.714642035484" name="Northolt Avenue" isBlocking="false"/>
		<stopFacility id="1180PLA10124" x="244982.02494453345" y="60015.32678555907" name="Northolt Avenue" isBlocking="false"/>
		<stopFacility id="1180PLA10125" x="245136.9688426729" y="59907.288154682" name="Maidstone Place" isBlocking="false"/>
		<stopFacility id="1180PLA10126" x="245159.98624524366" y="59892.146488530794" name="Hawkinge Gardens West" isBlocking="false"/>
		<stopFacility id="1180PLA10127" x="245373.0461774155" y="59903.700808530266" name="Bull and Bush" isBlocking="false"/>
		<stopFacility id="1180PLA10128" x="245362.9942467595" y="59890.642315453035" name="Bull and Bush" isBlocking="false"/>
		<stopFacility id="1180PLA10133" x="245003.99074837062" y="60286.19665530842" name="Tangmere Avenue" isBlocking="false"/>
		<stopFacility id="1180PLA10134" x="245255.00768695847" y="60307.757795298385" name="Lakeside Drive" isBlocking="false"/>
		<stopFacility id="1180PLA10135" x="245443.98406498748" y="60220.98485477359" name="West Malling Avenue" isBlocking="false"/>
		<stopFacility id="1180PLA10139" x="245617.00105126775" y="59982.23777960439" name="Biggin Hill" isBlocking="false"/>
		<stopFacility id="1180PLA10140" x="245663.9878498403" y="59955.26925932319" name="Biggin Hill" isBlocking="false"/>
		<stopFacility id="1180PLA10141" x="245843.97319883018" y="59825.37710219633" name="Mill Ford School" isBlocking="false"/>
		<stopFacility id="1180PLA10142" x="245843.9725861255" y="59786.43057086377" name="Millford School" isBlocking="false"/>
		<stopFacility id="1180PLA10143" x="245787.0115555299" y="59640.098549107264" name="Biggin Hill" isBlocking="false"/>
		<stopFacility id="1180PLA10144" x="245747.01312416667" y="59524.428273884725" name="Marina Road" isBlocking="false"/>
		<stopFacility id="1180PLA10145" x="245709.0050993253" y="59486.593173520465" name="Marina Road" isBlocking="false"/>
		<stopFacility id="1180PLA10146" x="245546.98721336434" y="59242.07570649937" name="Marrett Road" isBlocking="false"/>
		<stopFacility id="1180PLA10147" x="245576.01127980952" y="59266.8195961554" name="St Budeaux Church" isBlocking="false"/>
		<stopFacility id="1180PLA10148" x="245790.00448103412" y="59309.521802715666" name="Crownhill Road Playing Fields" isBlocking="false"/>
		<stopFacility id="1180PLA10149" x="245767.01435711316" y="59286.825916996895" name="Crownhill Road Playing Fields" isBlocking="false"/>
		<stopFacility id="1180PLA10150" x="246013.98906534456" y="59244.00355911313" name="West Park Shops" isBlocking="false"/>
		<stopFacility id="1180PLA10151" x="246165.010141237" y="59246.27447887353" name="West Park Shops" isBlocking="false"/>
		<stopFacility id="1180PLA10152" x="246460.0059611947" y="59267.72555943311" name="Woodbury Gardens" isBlocking="false"/>
		<stopFacility id="1180PLA10153" x="246472.02567863406" y="59275.165029718686" name="Woodbury Gardens" isBlocking="false"/>
		<stopFacility id="1180PLA10154" x="246607.98526765697" y="59326.847839860915" name="Shaldon Crescent" isBlocking="false"/>
		<stopFacility id="1180PLA10155" x="246606.9933118021" y="59412.55841618992" name="Lamerton Close" isBlocking="false"/>
		<stopFacility id="1180PLA10156" x="246609.01557008404" y="59438.09286568998" name="Lamerton Close" isBlocking="false"/>
		<stopFacility id="1180PLA10157" x="246200.9899069778" y="59653.606279897824" name="Ringmore Way West" isBlocking="false"/>
		<stopFacility id="1180PLA10158" x="246161.9821201564" y="59644.72889546596" name="Ringmore Way West" isBlocking="false"/>
		<stopFacility id="1180PLA10159" x="245983.02038367226" y="59590.97473316977" name="Budshead Road" isBlocking="false"/>
		<stopFacility id="1180PLA10160" x="245796.01741656466" y="59554.152873800514" name="Budshead Road West" isBlocking="false"/>
		<stopFacility id="1180PLA10161" x="245898.02272926638" y="59580.103879270144" name="Budshead Road" isBlocking="false"/>
		<stopFacility id="1180PLA10162" x="246482.02750821685" y="59904.69135766447" name="Milford Lane" isBlocking="false"/>
		<stopFacility id="1180PLA10168" x="246318.9992266599" y="60150.906288430444" name="Winchester Gardens" isBlocking="false"/>
		<stopFacility id="1180PLA10169" x="246332.98187928816" y="60242.857500030834" name="Milford Lane Flats" isBlocking="false"/>
		<stopFacility id="1180PLA10170" x="246356.00591225026" y="60352.3494104929" name="Lake View Drive Bottom" isBlocking="false"/>
		<stopFacility id="1180PLA10171" x="246339.00147264072" y="60325.025947719056" name="Lake View Drive Bottom" isBlocking="false"/>
		<stopFacility id="1180PLA10172" x="246441.04499049333" y="60406.6231706783" name="Lake View Drive Middle" isBlocking="false"/>
		<stopFacility id="1180PLA10173" x="246441.03775715578" y="60396.608598799445" name="Lake View Drive Middle" isBlocking="false"/>
		<stopFacility id="1180PLA10174" x="246574.98421494893" y="60509.54927092747" name="Lake View Drive Top" isBlocking="false"/>
		<stopFacility id="1180PLA10175" x="246583.0165931945" y="60507.09009457895" name="Lake View Drive Top" isBlocking="false"/>
		<stopFacility id="1180PLA10177" x="246548.98575065768" y="59862.683980640315" name="Milford Lane" isBlocking="false"/>
		<stopFacility id="1180PLA10229" x="247031.02278339738" y="56597.24767828375" name="Segrave Road" isBlocking="false"/>
		<stopFacility id="1180PLA10230" x="247237.01404508454" y="56871.69423061464" name="DHS Girls" isBlocking="false"/>
		<stopFacility id="1180PLA10231" x="247277.98091676776" y="56908.342185083806" name="Dhs Girls" isBlocking="false"/>
		<stopFacility id="1180PLA10232" x="247388.02742263148" y="57014.208394204936" name="Onslow Road" isBlocking="false"/>
		<stopFacility id="1180PLA10241" x="248836.96855385427" y="54753.76091248973" name="St Judes Church" isBlocking="false"/>
		<stopFacility id="1180PLA10243" x="249059.00079415416" y="54848.67014649467" name="Seymour Avenue" isBlocking="false"/>
		<stopFacility id="1180PLA10245" x="249305.0032005036" y="54958.482526883105" name="Durham Avenue" isBlocking="false"/>
		<stopFacility id="1180PLA10246" x="249321.96459325362" y="54956.88602859035" name="Durham Avenue" isBlocking="false"/>
		<stopFacility id="1180PLA10247" x="249470.98150746105" y="55027.1896974775" name="Carmarthen Road" isBlocking="false"/>
		<stopFacility id="1180PLA10249" x="249677.9957212645" y="55110.31197424783" name="Jephson Road" isBlocking="false"/>