<?xml version="1.0" encoding="UTF-8"?>
<!DOCTYPE population SYSTEM "http://www.matsim.org/files/dtd/population_v6.dtd">

<population>
	<person id="2369">
		<plan selected="yes">
			<activity type="home" x="247044.52064200677" y="57846.894126502506" end_time="7:10:00"/>
			<leg mode="walk"/>
			<activity type="shop" x="247369.97451113435" y="58136.57732355033" end_time="7:26:00"/>
			<leg mode="pt"/>
			<activity type="home" x="247583.7112684242" y="57856.52252966026" end_time="7:57:00"/>
			<leg mode="pt"/>
			<activity type="shop" x="248751.97589587" y="56590.69755177369" end_time="8:16:00"/>
			<leg mode="pt"/>
			<activity type="leisure" x="249344.48700340613" y="56878.52098865714" end_time="8:38:00"/>
			<leg mode="pt"/>
			<activity type="shop" x="249344.48700340613" y="56878.52098865714" end_time="10:9:00"/>
			<leg mode="pt"/>
			<activity type="shop" x="248834.13981455928" y="56672.95605302532" end_time="11:39:00"/>
			<leg mode="pt"/>
			<activity type="leisure" x="248977.13972915002" y="56917.00070665628" end_time="11:59:00"/>
			<leg mode="pt"/>
			<activity type="home" x="247037.99696099834" y="57641.1591241665"/>
		</plan>
	</person>
	<person id="741">
		<plan selected="yes">
			<activity type="home" x="249374.3571650278" y="58208.59070976294" end_time="14:57:00"/>
			<leg mode="car"/>
			<activity type="shop" x="249308.49839375794" y="59058.73125714666" end_time="15:3:00"/>
			<leg mode="car"/>
			<activity type="home" x="248708.34117071354" y="57605.43868298695"/>
		</plan>
	</person>
	<person id="396">
		<plan selected="yes">
			<activity type="home" x="247316.70461752423" y="59650.233788127574" end_time="4:36:00"/>
			<leg mode="car"/>
			<activity type="leisure" x="250364.67062504776" y="61653.56317865284" end_time="5:13:00"/>
			<leg mode="walk"/>
			<activity type="home" x="246956.35279067606" y="59793.38216291249" end_time="8:30:00"/>
			<leg mode="walk"/>
			<activity type="work" x="246549.48395224102" y="54449.45646480593" end_time="10:58:00"/>
			<leg mode="walk"/>
			<activity type="leisure" x="246568.96646389077" y="54364.044282287825" end_time="11:12:00"/>
			<leg mode="walk"/>
			<activity type="work" x="246735.93448472078" y="54443.94497528128" end_time="16:49:00"/>
			<leg mode="walk"/>
			<activity type="home" x="247174.75269825256" y="60115.065246422135"/>
		</plan>
	</person>
	<person id="1748">
		<plan selected="yes">
			<activity type="home" x="247742.91796603307" y="57397.431134489074" end_time="10:38:00"/>
			<leg mode="walk"/>
			<activity type="home" x="248541.63992722527" y="57254.369370961416" end_time="10:56:00"/>
			<leg mode="walk"/>
			<activity type="home" x="248332.78047758935" y="56942.2479161798"/>
		</plan>
	</person>
	<person id="2353">
		<plan selected="yes">
			<activity type="home" x="247114.68680207257" y="59762.32969138597" end_time="6:48:00"/>
			<leg mode="car"/>
			<activity type="leisure" x="244020.4160253785" y="54771.48763278863" end_time="7:1:00"/>
			<leg mode="car"/>
			<activity type="home" x="247556.57002542278" y="59475.90713615925" end_time="9:32:00"/>
			<leg mode="car"/>
			<activity type="leisure" x="246091.72795504288" y="55668.59740309033" end_time="9:53:00"/>
			<leg mode="car"/>
			<activity type="home" x="247678.5238520404" y="59761.6522255649" end_time="17:31:00"/>
			<leg mode="car"/>
			<activity type="leisure" x="246561.4696059144" y="58033.278857447236" end_time="17:37:00"/>
			<leg mode="car"/>
			<activity type="home" x="246956.35279067606" y="59793.38216291249"/>
		</plan>
	</person>
	<person id="1387">
		<plan selected="yes">
			<activity type="home" x="246184.66796879692" y="60335.98520080405" end_time="7:36:00"/>
			<leg mode="walk"/>
			<activity type="leisure" x="246957.43110366183" y="60970.90560788475" end_time="7:48:00"/>
			<leg mode="walk"/>
			<activity type="home" x="246217.14674516505" y="60370.04537845461"/>
		</plan>
	</person>
	<person id="1371">
		<plan selected="yes">
			<activity type="home" x="246862.97156479373" y="56826.76551681865" end_time="12:37:00"/>
			<leg mode="pt"/>
			<activity type="shop" x="247225.1200657167" y="57859.87929355304" end_time="13:21:00"/>
			<leg mode="pt"/>
			<activity type="home" x="246900.62207333083" y="57153.94367046657" end_time="18:44:00"/>
			<leg mode="pt"/>
			<activity type="leisure" x="247642.89771644626" y="57283.301653231814" end_time="20:22:00"/>
			<leg mode="pt"/>
			<activity type="home" x="246945.9424639864" y="56807.54621836828"/>
		</plan>
	</person>
	<person id="1732">
		<plan selected="yes">
			<activity type="home" x="248795.4756000619" y="58739.101083951595" end_time="8:13:00"/>
			<leg mode="walk"/>
			<activity type="work" x="247744.30907729166" y="57869.78025821343" end_time="11:31:00"/>
			<leg mode="car"/>
			<activity type="home" x="248703.10282139815" y="58799.26572440256" end_time="17:47:00"/>
			<leg mode="car"/>
			<activity type="leisure" x="249170.63960072267" y="59091.2117928316" end_time="18:2:00"/>
			<leg mode="car"/>
			<activity type="home" x="248814.63180880283" y="58869.13060906908"/>
		</plan>
	</person>
	<person id="1899">
		<plan selected="yes">
			<activity type="home" x="246966.77924169687" y="54890.02681283135" end_time="8:48:00"/>
			<leg mode="walk"/>
			<activity type="leisure" x="246946.36880488906" y="54665.45572074322" end_time="10:9:00"/>
			<leg mode="walk"/>
			<activity type="home" x="246939.76713445317" y="55603.250964227394"/>
		</plan>
	</person>
	<person id="147">
		<plan selected="yes">
			<activity type="home" x="248972.75395478262" y="54555.04760611235" end_time="9:1:00"/>
			<leg mode="walk"/>
			<activity type="shop" x="248940.84067676798" y="54114.80143688939" end_time="9:18:00"/>
			<leg mode="pt"/>
			<activity type="home" x="249248.1729649691" y="53995.221254736796" end_time="14:34:00"/>
			<leg mode="pt"/>
			<activity type="shop" x="251446.83050384076" y="56932.89072860443" end_time="14:46:00"/>
			<leg mode="pt"/>
			<activity type="home" x="248698.0471565747" y="54668.7152592022"/>
		</plan>
	</person>
	<person id="548">
		<plan selected="yes">
			<activity type="home" x="248516.28378834992" y="57521.116373263154" end_time="8:47:00"/>
			<leg mode="pt"/>
			<activity type="shop" x="249218.29969532273" y="57527.85617591915" end_time="10:15:00"/>
			<leg mode="pt"/>
			<activity type="home" x="247860.90104747817" y="57653.9751882079" end_time="10:46:00"/>
			<leg mode="pt"/>
			<activity type="leisure" x="246888.45744964704" y="59048.43213870554" end_time="11:0:00"/>
			<leg mode="pt"/>
			<activity type="home" x="247881.22749345552" y="57701.8266587361" end_time="15:58:00"/>
			<leg mode="pt"/>
			<activity type="leisure" x="247128.94013818487" y="55557.03530284914" end_time="16:19:00"/>
			<leg mode="walk"/>
			<activity type="home" x="248585.1202534723" y="57669.44846274727" end_time="17:33:00"/>
			<leg mode="walk"/>
			<activity type="shop" x="248319.99449159074" y="57680.34286814212" end_time="19:14:00"/>
			<leg mode="walk"/>
			<activity type="home" x="248412.88238155292" y="57539.95218297758"/>
		</plan>
	</person>
	<person id="2218">
		<plan selected="yes">
			<activity type="home" x="247105.10165663858" y="54756.17690417197" end_time="12:57:00"/>
			<leg mode="car"/>
			<activity type="leisure" x="247198.33748063157" y="54413.28345144517" end_time="19:55:00"/>
			<leg mode="car"/>
			<activity type="home" x="247399.68397820267" y="54839.483059971506"/>
		</plan>
	</person>
	<person id="1791">
		<plan selected="yes">
			<activity type="home" x="248339.67392784203" y="60975.3224997404" end_time="7:44:00"/>
			<leg mode="walk"/>
			<activity type="work" x="247218.46890248166" y="59197.02000537925" end_time="17:40:00"/>
			<leg mode="walk"/>
			<activity type="home" x="248312.43683579846" y="60554.0121118814"/>
		</plan>
	</person>
	<person id="1236">
		<plan selected="yes">
			<activity type="home" x="247722.47969784675" y="59130.484096248925" end_time="9:5:00"/>
			<leg mode="car"/>
			<activity type="home" x="247038.03828084283" y="58684.23203528265" end_time="11:35:00"/>
			<leg mode="car"/>
			<activity type="home" x="247384.519371667" y="59038.277499607415" end_time="14:38:00"/>
			<leg mode="car"/>
			<activity type="leisure" x="248519.98542625856" y="58598.85378235602" end_time="14:42:00"/>
			<leg mode="car"/>
			<activity type="shop" x="248557.4114175918" y="58591.43701022479" end_time="16:39:00"/>
			<leg mode="car"/>
			<activity type="home" x="247079.1119170124" y="58982.59223132572"/>
		</plan>
	</person>
	<person id="436">
		<plan selected="yes">
			<activity type="home" x="249510.93646793344" y="54063.38523647247" end_time="13:47:00"/>
			<leg mode="car"/>
			<activity type="leisure" x="244839.16330102037" y="56790.3088322322" end_time="14:31:00"/>
			<leg mode="car"/>
			<activity type="leisure" x="244839.16330102037" y="56790.3088322322" end_time="14:54:00"/>
			<leg mode="car"/>
			<activity type="shop" x="244839.16330102037" y="56790.3088322322" end_time="15:11:00"/>
			<leg mode="car"/>
			<activity type="leisure" x="250909.54066617883" y="61500.138198221015" end_time="15:30:00"/>
			<leg mode="car"/>
			<activity type="shop" x="247092.48946410936" y="57006.23059317251" end_time="18:40:00"/>
			<leg mode="car"/>
			<activity type="home" x="249496.797795968" y="54526.74208373501"/>
		</plan>
	</person>
	<person id="2202">
		<plan selected="yes">
			<activity type="home" x="248373.52436966222" y="59320.3265102891" end_time="9:25:00"/>
			<leg mode="walk"/>
			<activity type="leisure" x="247889.54183980913" y="59834.08896725695" end_time="9:43:00"/>
			<leg mode="car"/>
			<activity type="home" x="248565.5142175705" y="59324.39273963237" end_time="11:31:00"/>
			<leg mode="car"/>
			<activity type="leisure" x="247832.48901335502" y="59643.59802006083" end_time="12:8:00"/>
			<leg mode="car"/>
			<activity type="home" x="248567.07526073002" y="59964.9913159876"/>
		</plan>
	</person>
	<person id="1220">
		<plan selected="yes">
			<activity type="home" x="248029.39113377233" y="56743.82604625766" end_time="7:33:00"/>
			<leg mode="pt"/>
			<activity type="shop" x="247530.0969334499" y="57055.83249628867" end_time="7:57:00"/>
			<leg mode="pt"/>
			<activity type="home" x="247979.8322995272" y="56879.77067877192"/>
		</plan>
	</person>
	<person id="259">
		<plan selected="yes">
			<activity type="home" x="248603.61723952947" y="55494.688962706365" end_time="11:10:00"/>
			<leg mode="walk"/>
			<activity type="shop" x="249326.7778760793" y="55105.59179176265" end_time="12:14:00"/>
			<leg mode="walk"/>
			<activity type="home" x="249255.56114709596" y="55506.17561665084"/>
		</plan>
	</person>
	<person id="2084">
		<plan selected="yes">
			<activity type="home" x="245814.4641161465" y="57172.82327311966" end_time="9:43:00"/>
			<leg mode="pt"/>
			<activity type="work" x="248420.30786568765" y="55684.124149008945" end_time="18:29:00"/>
			<leg mode="pt"/>
			<activity type="home" x="245145.7444507844" y="56829.435446273885"/>
		</plan>
	</person>
	<person id="17">
		<plan selected="yes">
			<activity type="home" x="247534.2416455532" y="59054.089486381534" end_time="10:15:00"/>
			<leg mode="car"/>
			<activity type="leisure" x="247237.43890859582" y="58909.661273256555" end_time="11:9:00"/>
			<leg mode="car"/>
			<activity type="leisure" x="248363.2709281734" y="58922.48592020324" end_time="11:23:00"/>
			<leg mode="car"/>
			<activity type="home" x="247396.4081483851" y="59042.20655507574" end_time="12:10:00"/>
			<leg mode="car"/>
			<activity type="leisure" x="245352.78089541168" y="58820.68194396424" end_time="12:20:00"/>
			<leg mode="car"/>
			<activity type="home" x="247516.7575997836" y="59219.2023816008" end_time="15:24:00"/>
			<leg mode="car"/>
			<activity type="leisure" x="247343.11556923858" y="58846.6149289805" end_time="15:59:00"/>
			<leg mode="car"/>
			<activity type="home" x="246914.13150710164" y="58579.22129477488"/>
		</plan>
	</person>
	<person id="340">
		<plan selected="yes">
			<activity type="home" x="247842.78857778452" y="57686.88893844496" end_time="8:40:00"/>
			<leg mode="pt"/>
			<activity type="work" x="244878.54627285345" y="58087.07928353068" end_time="16:1:00"/>
			<leg mode="car"/>
			<activity type="home" x="248121.3669254632" y="58078.95970290087" end_time="20:25:00"/>
			<leg mode="car"/>
			<activity type="leisure" x="247999.58155554044" y="59766.46722964037" end_time="21:3:00"/>
			<leg mode="car"/>
			<activity type="home" x="248505.4326304937" y="58226.407360958256"/>
		</plan>
	</person>
	<person id="1463">
		<plan selected="yes">
			<activity type="home" x="247881.59401673626" y="58915.82070655085" end_time="11:24:00"/>
			<leg mode="car"/>
			<activity type="work" x="248745.07963979733" y="54681.6670589922" end_time="11:54:00"/>
			<leg mode="car"/>
			<activity type="home" x="248250.32536823282" y="58615.63693569641"/>
		</plan>
	</person>
	<person id="2261">
		<plan selected="yes">
			<activity type="home" x="248207.49494600014" y="55490.145436532795" end_time="6:59:00"/>
			<leg mode="car"/>
			<activity type="leisure" x="248424.9454982699" y="55579.695466940524" end_time="7:52:00"/>
			<leg mode="car"/>
			<activity type="home" x="248383.00118410905" y="55476.0584373569"/>
		</plan>
	</person>
	<person id="1295">
		<plan selected="yes">
			<activity type="home" x="248559.56488914147" y="59239.49532640746" end_time="6:59:00"/>
			<leg mode="pt"/>
			<activity type="leisure" x="246957.43110366183" y="60970.90560788475" end_time="9:41:00"/>
			<leg mode="pt"/>
			<activity type="shop" x="246957.43110366183" y="60970.90560788475" end_time="10:15:00"/>
			<leg mode="pt"/>
			<activity type="leisure" x="247832.48901335502" y="59643.59802006083" end_time="10:55:00"/>
			<leg mode="pt"/>
			<activity type="home" x="247946.04684573552" y="59637.23016520118" end_time="12:25:00"/>
			<leg mode="pt"/>
			<activity type="shop" x="247642.89771644626" y="57283.301653231814" end_time="13:1:00"/>
			<leg mode="pt"/>
			<activity type="home" x="247990.0094974232" y="59634.627873840655"/>
		</plan>
	</person>
	<person id="2596">
		<plan selected="yes">
			<activity type="home" x="245162.33473079916" y="60013.2308852766" end_time="6:23:00"/>
			<leg mode="walk"/>
			<activity type="work" x="248390.42462788097" y="55818.95383444501" end_time="8:40:00"/>
			<leg mode="walk"/>
			<activity type="leisure" x="248380.36485350158" y="55869.03703601583" end_time="9:17:00"/>
			<leg mode="walk"/>
			<activity type="leisure" x="248373.1644079004" y="55916.111714094586" end_time="10:10:00"/>
			<leg mode="walk"/>
			<activity type="work" x="248373.1644079004" y="55916.111714094586" end_time="17:50:00"/>
			<leg mode="walk"/>
			<activity type="home" x="245006.06714190444" y="60062.82074306926"/>
		</plan>
	</person>
	<person id="1640">
		<plan selected="yes">
			<activity type="home" x="245533.29366295933" y="56135.49738342466" end_time="7:37:00"/>
			<leg mode="walk"/>
			<activity type="work" x="248444.4347411705" y="57431.4899836072" end_time="12:41:00"/>
			<leg mode="walk"/>
			<activity type="leisure" x="248391.759682315" y="55863.480126241426" end_time="13:36:00"/>
			<leg mode="walk"/>
			<activity type="leisure" x="248352.25190226082" y="55790.39560972675" end_time="14:11:00"/>
			<leg mode="walk"/>
			<activity type="leisure" x="248443.57251920912" y="55792.68150646356" end_time="14:29:00"/>
			<leg mode="walk"/>
			<activity type="work" x="248555.0433052622" y="57061.305307966424" end_time="18:26:00"/>
			<leg mode="walk"/>
			<activity type="home" x="245348.90986749087" y="56211.319882354175" end_time="19:36:00"/>
			<leg mode="walk"/>
			<activity type="leisure" x="245443.50359304075" y="56291.71799003595" end_time="19:53:00"/>
			<leg mode="walk"/>
			<activity type="leisure" x="245077.67242958792" y="56001.76990116903" end_time="20:24:00"/>
			<leg mode="walk"/>
			<activity type="home" x="245541.21127942466" y="56213.548076116596"/>
		</plan>
	</person>
	<person id="1975">
		<plan selected="yes">
			<activity type="home" x="246632.2483898557" y="55110.24676525427" end_time="8:36:00"/>
			<leg mode="car"/>
			<activity type="leisure" x="246729.39040247156" y="54691.85270686785" end_time="8:42:00"/>
			<leg mode="car"/>
			<activity type="home" x="246026.11031658718" y="55397.61948955219" end_time="11:10:00"/>
			<leg mode="car"/>
			<activity type="leisure" x="246527.27982134593" y="56308.61503417225" end_time="11:25:00"/>
			<leg mode="car"/>
			<activity type="home" x="246581.40687176262" y="55083.6040181132" end_time="12:50:00"/>
			<leg mode="car"/>
			<activity type="leisure" x="245646.2770260726" y="55485.27310732778" end_time="12:54:00"/>
			<leg mode="car"/>
			<activity type="home" x="246507.1346345262" y="55017.8730443104"/>
		</plan>
	</person>
	<person id="1883">
		<plan selected="yes">
			<activity type="home" x="248059.31255528348" y="60523.95541347435" end_time="9:3:00"/>
			<leg mode="pt"/>
			<activity type="shop" x="245452.9518896026" y="53275.40405521018" end_time="10:4:00"/>
			<leg mode="pt"/>
			<activity type="home" x="247809.69003657947" y="60311.88784351823"/>
		</plan>
	</person>
	<person id="1328">
		<plan selected="yes">
			<activity type="home" x="248433.4555296976" y="58968.61721296044" end_time="6:40:00"/>
			<leg mode="car"/>
			<activity type="shop" x="249170.63960072267" y="59091.2117928316" end_time="7:4:00"/>
			<leg mode="car"/>
			<activity type="shop" x="249170.63960072267" y="59091.2117928316" end_time="8:30:00"/>
			<leg mode="car"/>
			<activity type="home" x="248292.94464502472" y="59182.81707213039" end_time="14:29:00"/>
			<leg mode="car"/>
			<activity type="shop" x="248526.07727627104" y="58609.67267216722" end_time="15:42:00"/>
			<leg mode="car"/>
			<activity type="shop" x="248363.2709281734" y="58922.48592020324" end_time="16:24:00"/>
			<leg mode="car"/>
			<activity type="home" x="248079.478805182" y="59069.718870427634"/>
		</plan>
	</person>
	<person id="949">
		<plan selected="yes">
			<activity type="home" x="249984.36320884014" y="55439.36077654472" end_time="9:12:00"/>
			<leg mode="pt"/>
			<activity type="leisure" x="250066.16208677832" y="55294.07775557574" end_time="10:43:00"/>
			<leg mode="pt"/>
			<activity type="leisure" x="249405.42267227496" y="54801.125484145334" end_time="12:36:00"/>
			<leg mode="pt"/>
			<activity type="home" x="249537.37132228163" y="55575.66331572045"/>
		</plan>
	</person>
	<person id="203">
		<plan selected="yes">
			<activity type="home" x="249678.68981980978" y="55513.16665176791" end_time="9:26:00"/>
			<leg mode="walk"/>
			<activity type="leisure" x="247544.67358935127" y="57138.65530483602" end_time="10:17:00"/>
			<leg mode="walk"/>
			<activity type="shop" x="247106.6604042192" y="56756.933723418566" end_time="10:46:00"/>
			<leg mode="walk"/>
			<activity type="home" x="249586.0465921137" y="55560.22342565478" end_time="12:3:00"/>
			<leg mode="walk"/>
			<activity type="shop" x="249849.51085154136" y="54968.021309949225" end_time="12:30:00"/>
			<leg mode="pt"/>
			<activity type="home" x="250060.22084715805" y="55181.77402615131" end_time="15:33:00"/>
			<leg mode="pt"/>
			<activity type="leisure" x="249572.97605623456" y="54531.88326486631" end_time="15:58:00"/>
			<leg mode="pt"/>
			<activity type="home" x="249727.5181088484" y="55056.10034682747"/>
		</plan>
	</person>
	<person id="564">
		<plan selected="yes">
			<activity type="home" x="246627.47754117814" y="60393.43772699358" end_time="8:52:00"/>
			<leg mode="walk"/>
			<activity type="work" x="246959.74519814027" y="60935.53090591615" end_time="9:12:00"/>
			<leg mode="walk"/>
			<activity type="home" x="246911.7866657404" y="60331.175717753824"/>
		</plan>
	</person>
	<person id="2126">
		<plan selected="yes">
			<activity type="home" x="248977.79738045798" y="58563.93339819438" end_time="6:19:00"/>
			<leg mode="walk"/>
			<activity type="work" x="250764.61232416722" y="59664.628443277266" end_time="16:10:00"/>
			<leg mode="walk"/>
			<activity type="home" x="248719.09899145144" y="58902.580027717544"/>
		</plan>
	</person>
	<person id="1505">
		<plan selected="yes">
			<activity type="home" x="246889.334514052" y="56966.829584190826" end_time="8:37:00"/>
			<leg mode="walk"/>
			<activity type="work" x="250682.56446789665" y="59494.146581936744" end_time="11:0:00"/>
			<leg mode="walk"/>
			<activity type="home" x="247234.25432355213" y="57071.72856839752"/>
		</plan>
	</person>
	<person id="62">
		<plan selected="yes">
			<activity type="home" x="247458.11233824596" y="58019.49498704358" end_time="9:18:00"/>
			<leg mode="car"/>
			<activity type="leisure" x="248619.76714729503" y="56568.37054428909" end_time="9:30:00"/>
			<leg mode="car"/>
			<activity type="home" x="247016.9743890312" y="57679.75736939302"/>
		</plan>
	</person>
	<person id="452">
		<plan selected="yes">
			<activity type="home" x="245472.12448318597" y="54402.35999459677" end_time="11:11:00"/>
			<leg mode="pt"/>
			<activity type="shop" x="247542.20281247122" y="53801.07487697879" end_time="11:30:00"/>
			<leg mode="pt"/>
			<activity type="shop" x="246688.9782769874" y="56205.329227662936" end_time="12:8:00"/>
			<leg mode="pt"/>
			<activity type="home" x="245283.8543851516" y="54714.81105710112"/>
		</plan>
	</person>
	<person id="2034">
		<plan selected="yes">
			<activity type="home" x="246358.8764959263" y="56255.08156380968" end_time="7:57:00"/>
			<leg mode="walk"/>
			<activity type="shop" x="246550.3599726649" y="56118.65544927586" end_time="8:8:00"/>
			<leg mode="walk"/>
			<activity type="home" x="246059.89918159673" y="55800.10592434683"/>
		</plan>
	</person>
	<person id="1052">
		<plan selected="yes">
			<activity type="home" x="245641.35198090205" y="59179.320558827894" end_time="11:58:00"/>
			<leg mode="car"/>
			<activity type="shop" x="246598.58968737643" y="59025.85060182368" end_time="12:5:00"/>
			<leg mode="car"/>
			<activity type="home" x="245386.64719486734" y="58475.90202419704" end_time="13:0:00"/>
			<leg mode="car"/>
			<activity type="shop" x="245444.14589744413" y="59290.46117102605" end_time="13:20:00"/>
			<leg mode="car"/>
			<activity type="home" x="245683.13118387316" y="59198.194842683966"/>
		</plan>
	</person>
	<person id="2185">
		<plan selected="yes">
			<activity type="home" x="246452.9432757497" y="60324.90760097475" end_time="7:5:00"/>
			<leg mode="car"/>
			<activity type="work" x="248684.18474809808" y="56536.92574451977" end_time="7:58:00"/>
			<leg mode="car"/>
			<activity type="home" x="246657.59298678144" y="60463.444293777575" end_time="9:2:00"/>
			<leg mode="car"/>
			<activity type="shop" x="245442.97314882293" y="60122.58593506523" end_time="9:21:00"/>
			<leg mode="car"/>
			<activity type="home" x="246586.0896611448" y="60572.06984050642"/>
		</plan>
	</person>
	<person id="1925">
		<plan selected="yes">
			<activity type="home" x="247756.63344121721" y="55530.104665853694" end_time="9:8:00"/>
			<leg mode="car"/>
			<activity type="shop" x="248152.50884407727" y="54988.1507140586" end_time="10:44:00"/>
			<leg mode="car"/>
			<activity type="leisure" x="247888.3390657136" y="55359.69024044793" end_time="11:43:00"/>
			<leg mode="car"/>
			<activity type="home" x="247905.70156033844" y="55525.53209703296" end_time="13:8:00"/>
			<leg mode="car"/>
			<activity type="leisure" x="247948.62557074687" y="54978.12501921042" end_time="13:44:00"/>
			<leg mode="car"/>
			<activity type="home" x="248304.93334497235" y="55236.73849463824"/>
		</plan>
	</person>
	<person id="2117">
		<plan selected="yes">
			<activity type="home" x="247935.4067386225" y="55633.50169975747" end_time="11:11:00"/>
			<leg mode="pt"/>
			<activity type="shop" x="246902.19849888945" y="57023.10624255007" end_time="11:38:00"/>
			<leg mode="pt"/>
			<activity type="shop" x="249544.91857018767" y="54641.683229553455" end_time="11:59:00"/>
			<leg mode="pt"/>
			<activity type="home" x="248444.1529935731" y="54871.97566973587"/>
		</plan>
	</person>
	<person id="2530">
		<plan selected="yes">
			<activity type="home" x="247882.01978883968" y="58758.178292835946" end_time="7:11:00"/>
			<leg mode="walk"/>
			<activity type="work" x="248021.03208613393" y="56561.901636408234" end_time="16:37:00"/>
			<leg mode="walk"/>
			<activity type="home" x="248168.66678714208" y="59039.86734637528"/>
		</plan>
	</person>
	<person id="1009">
		<plan selected="yes">
			<activity type="home" x="245845.8440226029" y="55999.58931898241" end_time="4:44:00"/>
			<leg mode="car"/>
			<activity type="home" x="245186.3802189278" y="55898.82354781692" end_time="5:55:00"/>
			<leg mode="car"/>
			<activity type="work" x="248807.62145268967" y="54732.53081707997" end_time="6:51:00"/>
			<leg mode="car"/>
			<activity type="home" x="246398.37152249276" y="56267.40801750886" end_time="8:41:00"/>
			<leg mode="car"/>
			<activity type="home" x="245185.87504664806" y="59957.05741582994" end_time="10:14:00"/>
			<leg mode="car"/>
			<activity type="work" x="248850.09287318727" y="54401.483967254666" end_time="18:1:00"/>
			<leg mode="car"/>
			<activity type="home" x="245794.9929986545" y="55894.516749125934"/>
		</plan>
	</person>
	<person id="1135">
		<plan selected="yes">
			<activity type="home" x="246758.19062864227" y="56413.32822029319" end_time="6:46:00"/>
			<leg mode="pt"/>
			<activity type="work" x="249047.20955110263" y="54138.38915691493" end_time="18:53:00"/>
			<leg mode="pt"/>
			<activity type="home" x="246473.49671682218" y="56580.764615387656"/>
		</plan>
	</person>
	<person id="725">
		<plan selected="yes">
			<activity type="home" x="247946.89840132775" y="56744.69880149019" end_time="11:10:00"/>
			<leg mode="pt"/>
			<activity type="leisure" x="248265.11237840686" y="57340.98001638154" end_time="13:37:00"/>
			<leg mode="walk"/>
			<activity type="home" x="248340.88783075282" y="57260.86709948184" end_time="13:50:00"/>
			<leg mode="walk"/>
			<activity type="shop" x="247744.30907729166" y="57869.78025821343" end_time="14:28:00"/>
			<leg mode="pt"/>
			<activity type="home" x="247797.90034254084" y="57323.94077063681" end_time="16:21:00"/>
			<leg mode="pt"/>
			<activity type="leisure" x="251674.0560603303" y="56822.28726867153" end_time="17:17:00"/>
			<leg mode="pt"/>
			<activity type="home" x="247854.06638796756" y="57329.72141876846"/>
		</plan>
	</person>
	<person id="2025">
		<plan selected="yes">
			<activity type="home" x="245451.201660073" y="55859.19849930695" end_time="18:0:00"/>
			<leg mode="car"/>
			<activity type="leisure" x="245728.9478157577" y="55493.64058942642" end_time="18:10:00"/>
			<leg mode="car"/>
			<activity type="home" x="245540.8831785688" y="56223.24976300466"/>
		</plan>
	</person>
	<person id="1833">
		<plan selected="yes">
			<activity type="home" x="243614.23208126484" y="58305.02698491272" end_time="15:7:00"/>
			<leg mode="car"/>
			<activity type="leisure" x="247590.55380223342" y="57420.53292548476" end_time="17:22:00"/>
			<leg mode="car"/>
			<activity type="leisure" x="244814.6894739927" y="55117.22355777383" end_time="17:41:00"/>
			<leg mode="car"/>
			<activity type="home" x="243651.44435466724" y="58395.37257227136"/>
		</plan>
	</person>
	<person id="212">
		<plan selected="yes">
			<activity type="home" x="248642.66995912004" y="55973.775961111125" end_time="9:22:00"/>
			<leg mode="car"/>
			<activity type="shop" x="248448.5670185469" y="61017.869383227226" end_time="9:36:00"/>
			<leg mode="car"/>
			<activity type="home" x="248855.00885252378" y="55953.30737571762" end_time="12:39:00"/>
			<leg mode="car"/>
			<activity type="shop" x="250129.03757605847" y="56274.079256677855" end_time="12:56:00"/>
			<leg mode="car"/>
			<activity type="shop" x="250129.03757605847" y="56274.079256677855" end_time="13:58:00"/>
			<leg mode="car"/>
			<activity type="home" x="248567.3507930419" y="56500.828978951846" end_time="15:25:00"/>
			<leg mode="car"/>
			<activity type="shop" x="248558.0422090496" y="56244.70210864727" end_time="16:8:00"/>
			<leg mode="car"/>
			<activity type="home" x="248998.0457704144" y="55700.66792765001"/>
		</plan>
	</person>
	<person id="1984">
		<plan selected="yes">
			<activity type="home" x="248550.67853562313" y="60804.3173855099" end_time="8:49:00"/>
			<leg mode="pt"/>
			<activity type="shop" x="248498.53808875268" y="60803.734330193605" end_time="9:42:00"/>
			<leg mode="pt"/>
			<activity type="leisure" x="248404.0970226601" y="60740.34095524956" end_time="10:51:00"/>
			<leg mode="pt"/>
			<activity type="leisure" x="248404.0970226601" y="60740.34095524956" end_time="13:40:00"/>
			<leg mode="pt"/>
			<activity type="home" x="248272.42020107046" y="60801.700941416726" end_time="14:6:00"/>
			<leg mode="pt"/>
			<activity type="leisure" x="248404.0970226601" y="60740.34095524956" end_time="14:53:00"/>
			<leg mode="pt"/>
			<activity type="home" x="247878.15981945093" y="60995.12630610561" end_time="20:16:00"/>
			<leg mode="pt"/>
			<activity type="leisure" x="249528.91407653733" y="55386.17566974746" end_time="21:47:00"/>
			<leg mode="pt"/>
			<activity type="home" x="248321.49694665123" y="60861.33373343549"/>
		</plan>
	</person>
	<person id="1916">
		<plan selected="yes">
			<activity type="home" x="247606.55042748255" y="58899.043411822204" end_time="14:3:00"/>
			<leg mode="pt"/>
			<activity type="leisure" x="247331.85178511206" y="57524.42708555263" end_time="14:29:00"/>
			<leg mode="pt"/>
			<activity type="leisure" x="244195.50625653673" y="55112.66990652488" end_time="14:52:00"/>
			<leg mode="pt"/>
			<activity type="shop" x="245371.38834443837" y="53440.89629366188" end_time="15:21:00"/>
			<leg mode="pt"/>
			<activity type="shop" x="246244.6227155053" y="54966.55334225818" end_time="15:58:00"/>
			<leg mode="pt"/>
			<activity type="shop" x="245788.38304069458" y="55528.225265458284" end_time="16:3:00"/>
			<leg mode="pt"/>
			<activity type="home" x="247336.38839513855" y="58769.42953481749"/>
		</plan>
	</person>
	<person id="573">
		<plan selected="yes">