<?xml version="1.0" encoding="UTF-8"?>
<!DOCTYPE transitSchedule SYSTEM "http://www.matsim.org/files/dtd/transitSchedule_v2.dtd">

<transitSchedule>

	<transitStops>
		<stopFacility id="1100PLA11176.link:14928" x="250557.97370897458" y="61511.231802968075" linkRefId="14928" name="Long Park Drive" isBlocking="false"/>
		<stopFacility id="1100PLA11177.link:14927" x="250586.0165065051" y="61492.63353803367" linkRefId="14927" name="Ferndale Close" isBlocking="false"/>
		<stopFacility id="1100PLA11178.link:14920" x="250908.00115358722" y="61431.2205633219" linkRefId="14920" name="School Drive" isBlocking="false"/>
		<stopFacility id="1100PLA11179.link:7311" x="251120.98721037258" y="61632.16548641835" linkRefId="7311" name="Skylark Rise" isBlocking="false"/>
		<stopFacility id="1100PLA11180.link:7313" x="251226.02177160155" y="61664.80689214161" linkRefId="7313" name="Church Park Road" isBlocking="false"/>
		<stopFacility id="1100PLA11180.link:7314" x="251226.02177160155" y="61664.80689214161" linkRefId="7314" name="Church Park Road" isBlocking="false"/>
		<stopFacility id="1100PLX00055.link:14919" x="250905.99759586228" y="61425.71367132169" linkRefId="14919" name="School Drive" isBlocking="false"/>
		<stopFacility id="118000001.link:24056" x="246387.0234863776" y="54187.9357989991" linkRefId="24056" name="Emma Place Ope" isBlocking="false"/>
		<stopFacility id="118000003.link:14161" x="251701.98041206357" y="58831.81403115063" linkRefId="14161" name="Weir Close" isBlocking="false"/>
		<stopFacility id="118000005.link:6885" x="246839.00791987832" y="58459.982963475515" linkRefId="6885" name="Cobbett Road" isBlocking="false"/>
		<stopFacility id="118000006.link:20138" x="249894.00082408937" y="58199.731773220876" linkRefId="20138" name="Shirburn Road" isBlocking="false"/>
		<stopFacility id="118000006.link:20139" x="249894.00082408937" y="58199.731773220876" linkRefId="20139" name="Shirburn Road" isBlocking="false"/>
		<stopFacility id="118000007.link:25855" x="246519.99680607967" y="56894.713862572826" linkRefId="25855" name="North Down Road West" isBlocking="false"/>
		<stopFacility id="118000008.link:12970" x="251207.01073775918" y="59010.428745006764" linkRefId="12970" name="Leypark Walk Top" isBlocking="false"/>
		<stopFacility id="118000009.link:12879" x="251166.03978693616" y="58853.58053154423" linkRefId="12879" name="Estover Health Centre" isBlocking="false"/>
		<stopFacility id="118000010.link:809" x="247241.97886051045" y="58950.14955467507" linkRefId="809" name="Matalan" isBlocking="false"/>
		<stopFacility id="118000013.link:27800" x="247553.96429360006" y="60557.93892799708" linkRefId="27800" name="Cheshire Drive" isBlocking="false"/>
		<stopFacility id="118000014.link:25101" x="247534.0127363041" y="60556.29021992328" linkRefId="25101" name="Cheshire Drive" isBlocking="false"/>
		<stopFacility id="118000014.link:27801" x="247534.0127363041" y="60556.29021992328" linkRefId="27801" name="Cheshire Drive" isBlocking="false"/>
		<stopFacility id="118000015.link:9909" x="245065.98513348788" y="55202.38928474445" linkRefId="9909" name="Torpoint Ferry" isBlocking="false"/>
		<stopFacility id="118000016.link:20656" x="250000.0053954779" y="60079.431417035026" linkRefId="20656" name="Runway Road" isBlocking="false"/>
		<stopFacility id="118000017.link:20653" x="249951.00506946177" y="60148.70094101169" linkRefId="20653" name="Runway Road" isBlocking="false"/>
		<stopFacility id="118000021.link:14236" x="247768.01751993524" y="54451.747010709165" linkRefId="14236" name="Royal Parade" isBlocking="false"/>
		<stopFacility id="118000021.link:9661" x="247768.01751993524" y="54451.747010709165" linkRefId="9661" name="Royal Parade" isBlocking="false"/>
		<stopFacility id="118000024.link:12019" x="245472.9668694742" y="57089.9416394789" linkRefId="12019" name="Saltash Road" isBlocking="false"/>
		<stopFacility id="118000028.link:23038" x="249919.04076012629" y="59874.7691840528" linkRefId="23038" name="Marjons" isBlocking="false"/>
		<stopFacility id="118000029.link:18487" x="247518.02845548157" y="54484.547979323135" linkRefId="18487" name="Derry's Cross North" isBlocking="false"/>
		<stopFacility id="118000029.link:18488" x="247518.02845548157" y="54484.547979323135" linkRefId="18488" name="Derry's Cross North" isBlocking="false"/>
		<stopFacility id="118000029.link:18489" x="247518.02845548157" y="54484.547979323135" linkRefId="18489" name="Derry's Cross North" isBlocking="false"/>
		<stopFacility id="118000033.link:4510" x="249795.0102110308" y="59623.487197434995" linkRefId="4510" name="Derriford Hospital" isBlocking="false"/>
		<stopFacility id="118000033.link:5231" x="249795.0102110308" y="59623.487197434995" linkRefId="5231" name="Derriford Hospital" isBlocking="false"/>
		<stopFacility id="118000034.link:4510" x="249818.01031897447" y="59617.26875328264" linkRefId="4510" name="Derriford Hospital" isBlocking="false"/>
		<stopFacility id="118000035.link:14641" x="249843.02344875477" y="59614.33126339372" linkRefId="14641" name="Derriford Hospital" isBlocking="false"/>
		<stopFacility id="118000036.link:661" x="249910.02066743796" y="59620.213639914" linkRefId="661" name="Derriford Hospital" isBlocking="false"/>
		<stopFacility id="118000036.link:662" x="249910.02066743796" y="59620.213639914" linkRefId="662" name="Derriford Hospital" isBlocking="false"/>
		<stopFacility id="118000056.link:27149" x="244558.0229614374" y="58427.64058405961" linkRefId="27149" name="Stirling Road East" isBlocking="false"/>
		<stopFacility id="1180033077.link:1050" x="248074.02593483124" y="54941.44065028228" linkRefId="1050" name="University" isBlocking="false"/>
		<stopFacility id="1180033078.link:22261" x="251275.9813027722" y="58031.53276098461" linkRefId="22261" name="Sheepstor Road" isBlocking="false"/>
		<stopFacility id="1180033079.link:21864" x="248355.9861035303" y="61105.648885917646" linkRefId="21864" name="Kinniard Crescent" isBlocking="false"/>
		<stopFacility id="1180033081.link:22084" x="248693.00780349004" y="54686.667702208826" linkRefId="22084" name="Friary Surgery" isBlocking="false"/>
		<stopFacility id="1180033082.link:21417" x="246790.99824407283" y="56119.05107029021" linkRefId="21417" name="Milehouse LC 2" isBlocking="false"/>
		<stopFacility id="1180033082.link:79" x="246790.99824407283" y="56119.05107029021" linkRefId="79" name="Milehouse LC 2" isBlocking="false"/>
		<stopFacility id="1180033084.link:6755" x="247043.98125728662" y="55784.572909642506" linkRefId="6755" name="Cuffe Road" isBlocking="false"/>
		<stopFacility id="1180FWX38753.link:17508" x="245218.01119898533" y="55271.374719865475" linkRefId="17508" name="Ferry Road" isBlocking="false"/>
		<stopFacility id="1180PCX00005.link:14543" x="246839.97316244195" y="55962.959563650686" linkRefId="14543" name="Bus Depot" isBlocking="false"/>
		<stopFacility id="1180PCX00005.link:15955" x="246839.97316244195" y="55962.959563650686" linkRefId="15955" name="Bus Depot" isBlocking="false"/>
		<stopFacility id="1180PCX00005.link:18718" x="246839.97316244195" y="55962.959563650686" linkRefId="18718" name="Bus Depot" isBlocking="false"/>
		<stopFacility id="1180PCX00005.link:6756" x="246839.97316244195" y="55962.959563650686" linkRefId="6756" name="Bus Depot" isBlocking="false"/>
		<stopFacility id="1180PCX38435.link:13506" x="249672.98459825528" y="55839.28013583936" linkRefId="13506" name="Efford Lane" isBlocking="false"/>
		<stopFacility id="1180PCX38449.link:16627" x="249755.9962724823" y="55953.75268243809" linkRefId="16627" name="Western Drive" isBlocking="false"/>
		<stopFacility id="1180PCX38451.link:22077" x="248408.0323124785" y="54680.37100378607" linkRefId="22077" name="Gasking Street" isBlocking="false"/>
		<stopFacility id="1180PCX38452.link:17687" x="248459.00674855078" y="54648.86524579639" linkRefId="17687" name="St Theresas Court" isBlocking="false"/>
		<stopFacility id="1180PCX38453.link:22082" x="248260.99184558634" y="54672.351884722535" linkRefId="22082" name="Lanyon House" isBlocking="false"/>
		<stopFacility id="1180PCX38469.link:21204" x="248742.02580816575" y="55454.15324647943" linkRefId="21204" name="Queens Road Triangle" isBlocking="false"/>
		<stopFacility id="1180PCX38470.link:21131" x="249011.9821742289" y="55369.65237218683" linkRefId="21131" name="Queens Road East" isBlocking="false"/>
		<stopFacility id="1180PCX38471.link:21130" x="249002.01540727806" y="55384.402591941616" linkRefId="21130" name="Queens Road East" isBlocking="false"/>
		<stopFacility id="1180PCX38483.link:5079" x="246492.0118353589" y="59915.528304529755" linkRefId="5079" name="Milford Lane" isBlocking="false"/>
		<stopFacility id="1180PCX38487.link:27786" x="248976.96807251367" y="60045.19973328695" linkRefId="27786" name="Notre Dame School Grounds" isBlocking="false"/>
		<stopFacility id="1180PCX38487.link:346" x="248976.96807251367" y="60045.19973328695" linkRefId="346" name="Notre Dame School Grounds" isBlocking="false"/>
		<stopFacility id="1180PCX38487.link:347" x="248976.96807251367" y="60045.19973328695" linkRefId="347" name="Notre Dame School Grounds" isBlocking="false"/>
		<stopFacility id="1180PCX38490.link:6479" x="248025.03850740218" y="57271.7908069813" linkRefId="6479" name="Effingham Crescent" isBlocking="false"/>
		<stopFacility id="1180PCY38493.link:2600" x="247086.99629852208" y="54571.557464571844" linkRefId="2600" name="Octagon Street" isBlocking="false"/>
		<stopFacility id="1180PCY38495.link:19493" x="248197.9727809557" y="53925.299327832094" linkRefId="19493" name="Lambhay Hill" isBlocking="false"/>
		<stopFacility id="1180PCY38496.link:26515" x="247241.01065705676" y="53953.98665761034" linkRefId="26515" name="Walker Terrace" isBlocking="false"/>
		<stopFacility id="1180PCY38497.link:6495" x="247279.99534325994" y="54133.12254102051" linkRefId="6495" name="St Andrews School" isBlocking="false"/>
		<stopFacility id="1180PCY38499.link:3251" x="246949.01371146704" y="54245.069832839275" linkRefId="3251" name="Martin Street" isBlocking="false"/>
		<stopFacility id="1180PCY38505.link:10543" x="245948.00653974054" y="54921.77570797459" linkRefId="10543" name="City College Plymouth" isBlocking="false"/>
		<stopFacility id="1180PCY38505.link:28587" x="245948.00653974054" y="54921.77570797459" linkRefId="28587" name="City College Plymouth" isBlocking="false"/>
		<stopFacility id="1180PCY38506.link:10149" x="244876.95919155274" y="59894.89827022623" linkRefId="10149" name="New Chivenor Avenue" isBlocking="false"/>
		<stopFacility id="1180PCY38508.link:28554" x="251244.00732731208" y="58494.20465084538" linkRefId="28554" name="Novorossisk Road" isBlocking="false"/>
		<stopFacility id="1180PCY38509.link:12902" x="251243.98616476526" y="58556.51651596371" linkRefId="12902" name="Novorossisk Footpath" isBlocking="false"/>
		<stopFacility id="1180PCY38510.link:13160" x="251032.0001298207" y="59165.58225194743" linkRefId="13160" name="Dover Road West" isBlocking="false"/>
		<stopFacility id="1180PCY38513.link:22716" x="251950.0151057261" y="56794.18432403382" linkRefId="22716" name="Argosy House" isBlocking="false"/>
		<stopFacility id="1180PCY38522.link:27225" x="248323.97654270154" y="57875.19432556126" linkRefId="27225" name="Manadon Roundabout" isBlocking="false"/>
		<stopFacility id="1180PCY38529.link:1875" x="249411.98772631687" y="61056.467608470004" linkRefId="1875" name="Oakwood Primary School" isBlocking="false"/>
		<stopFacility id="1180PLA01834.link:8633" x="251425.00703355417" y="59898.89733800336" linkRefId="8633" name="Estover Road" isBlocking="false"/>
		<stopFacility id="1180PLA01835.link:1616" x="251574.0165266401" y="59909.167273533065" linkRefId="1616" name="Estover Close" isBlocking="false"/>
		<stopFacility id="1180PLA01836.link:1616" x="251728.97254533568" y="59739.01697596567" linkRefId="1616" name="Estover Road" isBlocking="false"/>
		<stopFacility id="1180PLA01837.link:12542" x="251711.00639692903" y="59552.58861022204" linkRefId="12542" name="Wrigleys" isBlocking="false"/>
		<stopFacility id="1180PLA01845.link:12079" x="251363.0288202139" y="57140.03472214023" linkRefId="12079" name="St Modwen Road" isBlocking="false"/>
		<stopFacility id="1180PLA01852.link:11598" x="245766.00682408395" y="57987.155220437155" linkRefId="11598" name="Weston Mill Hill Flyover" isBlocking="false"/>
		<stopFacility id="1180PLA01853.link:2694" x="247344.9814614544" y="57532.87601640227" linkRefId="2694" name="Honicknowle Lane" isBlocking="false"/>
		<stopFacility id="1180PLA01854.link:14160" x="251648.0008889767" y="58967.967900561576" linkRefId="14160" name="Towers Close" isBlocking="false"/>
		<stopFacility id="1180PLA01859.link:7543" x="248188.0160636108" y="59897.6002066388" linkRefId="7543" name="Tamerton Foliot Road Hill" isBlocking="false"/>
		<stopFacility id="1180PLA01860.link:7542" x="248207.97946892862" y="59862.530911660084" linkRefId="7542" name="Tamerton Foliot Road Hill" isBlocking="false"/>
		<stopFacility id="1180PLA01861.link:1909" x="247976.97424677588" y="60461.159853948135" linkRefId="1909" name="Southway Drive Steps" isBlocking="false"/>
		<stopFacility id="1180PLA01862.link:6624" x="245881.95568592448" y="56118.79498643911" linkRefId="6624" name="Craigmore Avenue" isBlocking="false"/>
		<stopFacility id="1180PLA01863.link:5667" x="248376.01561687182" y="55654.92255176263" linkRefId="5667" name="Ermington Terrace" isBlocking="false"/>
		<stopFacility id="1180PLA01866.link:2599" x="247077.0159422157" y="54568.50810079597" linkRefId="2599" name="Octagon Street" isBlocking="false"/>
		<stopFacility id="1180PLA01867.link:20744" x="246974.02397173343" y="54604.87198538429" linkRefId="20744" name="King Street Shops" isBlocking="false"/>
		<stopFacility id="1180PLA06903.link:25419" x="249298.95218397223" y="59164.72824601323" linkRefId="25419" name="Peninsular Radiology" isBlocking="false"/>
		<stopFacility id="1180PLA06904.link:436" x="249864.00006334574" y="60773.18676903838" linkRefId="436" name="Roborough Surgery" isBlocking="false"/>
		<stopFacility id="1180PLA06905.link:12107" x="249534.03238947794" y="59875.72332620155" linkRefId="12107" name="Plymbridge Lane" isBlocking="false"/>
		<stopFacility id="1180PLA06908.link:20882" x="245361.98073212526" y="58873.60694800975" linkRefId="20882" name="Plaistow School" isBlocking="false"/>
		<stopFacility id="1180PLA06911.link:23148" x="249080.02849768236" y="59224.39684268049" linkRefId="23148" name="Future Inns" isBlocking="false"/>
		<stopFacility id="1180PLA06912.link:25419" x="249115.9665509124" y="59173.29635310671" linkRefId="25419" name="Land Registry" isBlocking="false"/>
		<stopFacility id="1180PLA06913.link:23154" x="249245.9866825135" y="59177.368632405676" linkRefId="23154" name="Peninsular Radiology" isBlocking="false"/>
		<stopFacility id="1180PLA06914.link:20850" x="249499.97333199938" y="59075.5361615789" linkRefId="20850" name="Bircham House" isBlocking="false"/>
		<stopFacility id="1180PLA06915.link:20848" x="249746.03296815083" y="58937.22244521268" linkRefId="20848" name="Brest Road South" isBlocking="false"/>
		<stopFacility id="1180PLA06917.link:5081" x="246382.96452578253" y="60047.782334893476" linkRefId="5081" name="Milford Lane Middle" isBlocking="false"/>
		<stopFacility id="1180PLA06918.link:5080" x="246387.97976548123" y="60019.81743797989" linkRefId="5080" name="Milford Lane Middle" isBlocking="false"/>
		<stopFacility id="1180PLA06919.link:20803" x="249685.97834774686" y="59160.363822913874" linkRefId="20803" name="South West Media" isBlocking="false"/>
		<stopFacility id="1180PLA06919.link:pt_1180PLA06919" x="249685.97834774686" y="59160.363822913874" linkRefId="pt_1180PLA06919" name="South West Media" isBlocking="false"/>
		<stopFacility id="1180PLA06927.link:17845" x="249818.02292201668" y="55357.80152980136" linkRefId="17845" name="Crossway Avenue" isBlocking="false"/>
		<stopFacility id="1180PLA06930.link:13129" x="249440.98346647475" y="59260.81806745002" linkRefId="13129" name="TA Centre" isBlocking="false"/>
		<stopFacility id="1180PLA06931.link:965" x="249360.0319254473" y="59503.47677933372" linkRefId="965" name="Brest Road Post Boxes" isBlocking="false"/>
		<stopFacility id="1180PLA06932.link:966" x="249370.00922714526" y="59504.30460586029" linkRefId="966" name="Ambulance Station" isBlocking="false"/>
		<stopFacility id="1180PLA06939.link:26873" x="244644.9999700712" y="58620.92667532558" linkRefId="26873" name="Normandy Way" isBlocking="false"/>
		<stopFacility id="1180PLA06946.link:25379" x="250082.97093466425" y="60784.760383691144" linkRefId="25379" name="The George P&amp;R" isBlocking="false"/>
		<stopFacility id="1180PLA06946.link:25423" x="250082.97093466425" y="60784.760383691144" linkRefId="25423" name="The George P&amp;R" isBlocking="false"/>
		<stopFacility id="1180PLA06946.link:28595" x="250082.97093466425" y="60784.760383691144" linkRefId="28595" name="The George P&amp;R" isBlocking="false"/>
		<stopFacility id="1180PLA06946.link:28619" x="250082.97093466425" y="60784.760383691144" linkRefId="28619" name="The George P&amp;R" isBlocking="false"/>
		<stopFacility id="1180PLA06946.link:29084" x="250082.97093466425" y="60784.760383691144" linkRefId="29084" name="The George P&amp;R" isBlocking="false"/>
		<stopFacility id="1180PLA06951.link:27982" x="247859.97798043935" y="56993.91103053946" linkRefId="27982" name="Burleigh Park Road" isBlocking="false"/>
		<stopFacility id="1180PLA10004.link:2407" x="246283.02240828334" y="53969.52427958461" linkRefId="2407" name="Admiral's Hard" isBlocking="false"/>
		<stopFacility id="1180PLA10014.link:79" x="246804.00104837713" y="56108.65919930485" linkRefId="79" name="Milehouse LC 1" isBlocking="false"/>
		<stopFacility id="1180PLA10015.link:19360" x="246443.99266820578" y="56350.565519770695" linkRefId="19360" name="Queens House" isBlocking="false"/>
		<stopFacility id="1180PLA10015.link:5176" x="246443.99266820578" y="56350.565519770695" linkRefId="5176" name="Queens House" isBlocking="false"/>
		<stopFacility id="1180PLA10015.link:9337" x="246443.99266820578" y="56350.565519770695" linkRefId="9337" name="Queens House" isBlocking="false"/>
		<stopFacility id="1180PLA10018.link:5177" x="246245.99786208288" y="56416.414920916344" linkRefId="5177" name="Ford Shops" isBlocking="false"/>
		<stopFacility id="1180PLA10019.link:21396" x="246117.98267127172" y="56544.7716773352" linkRefId="21396" name="Lidls" isBlocking="false"/>
		<stopFacility id="1180PLA10020.link:12018" x="245755.00178130914" y="56855.80536785064" linkRefId="12018" name="Wolseley Road Flats" isBlocking="false"/>
		<stopFacility id="1180PLA10022.link:25042" x="245296.9816320119" y="57298.73031714192" linkRefId="25042" name="Camels Head Dockyard" isBlocking="false"/>
		<stopFacility id="1180PLA10023.link:27430" x="245025.98898708224" y="57539.24573092378" linkRefId="27430" name="Harbour Avenue" isBlocking="false"/>
		<stopFacility id="1180PLA10024.link:13209" x="244748.98771169494" y="58014.74669035818" linkRefId="13209" name="St Budeaux Square 1" isBlocking="false"/>
		<stopFacility id="1180PLA10024.link:14050" x="244748.98771169494" y="58014.74669035818" linkRefId="14050" name="St Budeaux Square 1" isBlocking="false"/>
		<stopFacility id="1180PLA10025.link:16205" x="244644.00845468853" y="58195.878438456944" linkRefId="16205" name="Victoria Road Bottom" isBlocking="false"/>
		<stopFacility id="1180PLA10025.link:9326" x="244644.00845468853" y="58195.878438456944" linkRefId="9326" name="Victoria Road Bottom" isBlocking="false"/>
		<stopFacility id="1180PLA10026.link:17148" x="244677.0268168147" y="58471.98575639457" linkRefId="17148" name="Evelyn Street" isBlocking="false"/>
		<stopFacility id="1180PLA10027.link:16199" x="244835.98335144116" y="58687.63745812839" linkRefId="16199" name="Bickham Road" isBlocking="false"/>
		<stopFacility id="1180PLA10028.link:16201" x="244923.98035499282" y="58768.50814773294" linkRefId="16201" name="Verna Road" isBlocking="false"/>
		<stopFacility id="1180PLA10030.link:16215" x="245142.03079052942" y="58941.25949660703" linkRefId="16215" name="Victoria Road Top" isBlocking="false"/>
		<stopFacility id="1180PLA10031.link:24807" x="245266.00731231726" y="59019.966856254876" linkRefId="24807" name="Roman Way" isBlocking="false"/>
		<stopFacility id="1180PLA10032.link:16216" x="245095.9707042727" y="58854.70310976761" linkRefId="16216" name="Row Lane" isBlocking="false"/>
		<stopFacility id="1180PLA10033.link:16202" x="244986.0059604271" y="58781.15163202779" linkRefId="16202" name="Victoria Road Tennis Courts" isBlocking="false"/>
		<stopFacility id="1180PLA10034.link:17151" x="244715.9944753947" y="58515.3496947278" linkRefId="17151" name="Evelyn Street" isBlocking="false"/>
		<stopFacility id="1180PLA10035.link:13210" x="244663.99740181878" y="58200.85392000474" linkRefId="13210" name="Victoria Road Library" isBlocking="false"/>
		<stopFacility id="1180PLA10035.link:16206" x="244663.99740181878" y="58200.85392000474" linkRefId="16206" name="Victoria Road Library" isBlocking="false"/>
		<stopFacility id="1180PLA10035.link:16208" x="244663.99740181878" y="58200.85392000474" linkRefId="16208" name="Victoria Road Library" isBlocking="false"/>
		<stopFacility id="1180PLA10035.link:27057" x="244663.99740181878" y="58200.85392000474" linkRefId="27057" name="Victoria Road Library" isBlocking="false"/>
		<stopFacility id="1180PLA10036.link:19709" x="244761.02154230175" y="58046.66295459439" linkRefId="19709" name="St Budeaux Square 2" isBlocking="false"/>
		<stopFacility id="1180PLA10037.link:27431" x="245040.04292657002" y="57545.509734494495" linkRefId="27431" name="Harbour Avenue" isBlocking="false"/>
		<stopFacility id="1180PLA10038.link:9356" x="245288.00049556379" y="57349.067674003774" linkRefId="9356" name="Weston Mill Primary School" isBlocking="false"/>
		<stopFacility id="1180PLA10038.link:9975" x="245288.00049556379" y="57349.067674003774" linkRefId="9975" name="Weston Mill Primary School" isBlocking="false"/>
		<stopFacility id="1180PLA10039.link:9356" x="245446.02546775946" y="57158.608438726194" linkRefId="9356" name="Camels Head Post Office" isBlocking="false"/>
		<stopFacility id="1180PLA10040.link:9358" x="245804.9947315672" y="56857.6834096284" linkRefId="9358" name="Cookworthy Road" isBlocking="false"/>
		<stopFacility id="1180PLA10041.link:9359" x="245975.978048546" y="56734.74121083823" linkRefId="9359" name="Austin Avenue" isBlocking="false"/>
		<stopFacility id="1180PLA10042.link:19410" x="246136.99447609115" y="56557.57066350375" linkRefId="19410" name="Lidls" isBlocking="false"/>
		<stopFacility id="1180PLA10043.link:19412" x="246273.99783948125" y="56417.82523596674" linkRefId="19412" name="North Prospect Library" isBlocking="false"/>
		<stopFacility id="1180PLA10044.link:28183" x="246559.980648416" y="56329.39017021077" linkRefId="28183" name="Queens House" isBlocking="false"/>
		<stopFacility id="1180PLA10044.link:5122" x="246559.980648416" y="56329.39017021077" linkRefId="5122" name="Queens House" isBlocking="false"/>
		<stopFacility id="1180PLA10044.link:5268" x="246559.980648416" y="56329.39017021077" linkRefId="5268" name="Queens House" isBlocking="false"/>
		<stopFacility id="1180PLA10045.link:14543" x="246892.96632263914" y="56045.9912888339" linkRefId="14543" name="Milehouse LC 6" isBlocking="false"/>
		<stopFacility id="1180PLA10046.link:20880" x="245358.96284119037" y="58967.16738034386" linkRefId="20880" name="Priestley Avenue" isBlocking="false"/>
		<stopFacility id="1180PLA10048.link:20879" x="245346.97392395415" y="58987.548479478806" linkRefId="20879" name="Priestley Avenue" isBlocking="false"/>
		<stopFacility id="1180PLA10049.link:20883" x="245350.97666825974" y="58857.238023137936" linkRefId="20883" name="Plaistow School" isBlocking="false"/>
		<stopFacility id="1180PLA10050.link:9946" x="245399.0101120051" y="58613.248570119" linkRefId="9946" name="Marine Academy" isBlocking="false"/>
		<stopFacility id="1180PLA10051.link:9947" x="245387.96458811147" y="58639.16568188506" linkRefId="9947" name="Marine Academy" isBlocking="false"/>
		<stopFacility id="1180PLA10052.link:27102" x="245310.00071430966" y="58272.013785377436" linkRefId="27102" name="Weston Mill Road" isBlocking="false"/>
		<stopFacility id="1180PLA10052.link:27103" x="245310.00071430966" y="58272.013785377436" linkRefId="27103" name="Weston Mill Road" isBlocking="false"/>
		<stopFacility id="1180PLA10052.link:9930" x="245310.00071430966" y="58272.013785377436" linkRefId="9930" name="Weston Mill Road" isBlocking="false"/>
		<stopFacility id="1180PLA10053.link:9929" x="245349.97571943878" y="58201.851095810125" linkRefId="9929" name="Moor Lane" isBlocking="false"/>
		<stopFacility id="1180PLA10054.link:9932" x="245348.9955331344" y="58182.96289120379" linkRefId="9932" name="Moor Lane" isBlocking="false"/>
		<stopFacility id="1180PLA10055.link:17279" x="245416.02141872034" y="58201.02897124557" linkRefId="17279" name="Flamsteed Crescent" isBlocking="false"/>
		<stopFacility id="1180PLA10056.link:17278" x="245424.0303040767" y="58195.23059982431" linkRefId="17278" name="Flamstead Crescent" isBlocking="false"/>
		<stopFacility id="1180PLA10057.link:17272" x="245591.00254041277" y="58274.91250999851" linkRefId="17272" name="Kings Tamerton Road" isBlocking="false"/>
		<stopFacility id="1180PLA10058.link:17269" x="245666.00827042284" y="58480.80421445944" linkRefId="17269" name="Telford Crescent" isBlocking="false"/>
		<stopFacility id="1180PLA10059.link:17266" x="245752.99979967487" y="58522.77112101205" linkRefId="17266" name="Coombe Way" isBlocking="false"/>
		<stopFacility id="1180PLA10060.link:4565" x="245785.9727004932" y="58728.78021040259" linkRefId="4565" name="Cayley Way" isBlocking="false"/>
		<stopFacility id="1180PLA10061.link:4562" x="245782.02244115082" y="58744.474255631765" linkRefId="4562" name="Cayley Way" isBlocking="false"/>
		<stopFacility id="1180PLA10061.link:4564" x="245782.02244115082" y="58744.474255631765" linkRefId="4564" name="Cayley Way" isBlocking="false"/>
		<stopFacility id="1180PLA10062.link:4567" x="245489.96764906176" y="58793.077207838855" linkRefId="4567" name="Kings Tamerton Reservoir" isBlocking="false"/>
		<stopFacility id="1180PLA10063.link:4566" x="245442.9797310147" y="58776.64912073579" linkRefId="4566" name="Reservoir" isBlocking="false"/>
		<stopFacility id="1180PLA10064.link:20317" x="244848.99832701386" y="58612.699423501064" linkRefId="20317" name="Chard Road" isBlocking="false"/>
		<stopFacility id="1180PLA10065.link:6923" x="245038.99938443658" y="58522.546519610594" linkRefId="6923" name="Wakefield Avenue" isBlocking="false"/>
		<stopFacility id="1180PLA10066.link:27100" x="245308.03396760393" y="58384.46030172016" linkRefId="27100" name="Byard Close" isBlocking="false"/>
		<stopFacility id="1180PLA10067.link:27099" x="245237.01164882566" y="58414.36163854238" linkRefId="27099" name="Peters Park Close" isBlocking="false"/>
		<stopFacility id="1180PLA10068.link:20318" x="244943.0061839589" y="58566.53847894943" linkRefId="20318" name="Wakefield Avenue" isBlocking="false"/>
		<stopFacility id="1180PLA10069.link:20601" x="244778.01197244294" y="58029.471762637084" linkRefId="20601" name="St Budeaux Square 3" isBlocking="false"/>
		<stopFacility id="1180PLA10071.link:25366" x="247012.97378671114" y="61054.312480680004" linkRefId="25366" name="Horsham Lane" isBlocking="false"/>
		<stopFacility id="1180PLA10072.link:15211" x="247240.98418533007" y="54228.83237898216" linkRefId="15211" name="Durley House" isBlocking="false"/>
		<stopFacility id="1180PLA10072.link:26020" x="247240.98418533007" y="54228.83237898216" linkRefId="26020" name="Durley House" isBlocking="false"/>
		<stopFacility id="1180PLA10074.link:26019" x="247247.03824558714" y="54248.686564026226" linkRefId="26019" name="New Continental Hotel" isBlocking="false"/>
		<stopFacility id="1180PLA10075.link:3250" x="246909.97373627024" y="54246.20069870347" linkRefId="3250" name="Phoenix Street" isBlocking="false"/>
		<stopFacility id="1180PLA10076.link:3245" x="246672.95897872903" y="54169.617066889536" linkRefId="3245" name="Caroline Place" isBlocking="false"/>
		<stopFacility id="1180PLA10077.link:3184" x="246588.0072422055" y="54138.700412722596" linkRefId="3184" name="Caroline Place" isBlocking="false"/>
		<stopFacility id="1180PLA10078.link:3182" x="246457.03064411454" y="54150.29352826817" linkRefId="3182" name="Market Street" isBlocking="false"/>
		<stopFacility id="1180PLA10079.link:6178" x="246357.02073350456" y="53978.49985931796" linkRefId="6178" name="Admiralty Street" isBlocking="false"/>
		<stopFacility id="1180PLA10080.link:6181" x="246386.01170490967" y="53753.99617366356" linkRefId="6181" name="St Paul's Church" isBlocking="false"/>
		<stopFacility id="1180PLA10081.link:11893" x="246263.99197127463" y="53677.42667744472" linkRefId="11893" name="Royal William Yard" isBlocking="false"/>
		<stopFacility id="1180PLA10082.link:2409" x="246262.97048327548" y="54116.9895720543" linkRefId="2409" name="Stonehall Flats" isBlocking="false"/>
		<stopFacility id="1180PLA10083.link:20854" x="246292.0262819398" y="54323.11449204467" linkRefId="20854" name="Newport Street" isBlocking="false"/>
		<stopFacility id="1180PLA10084.link:20855" x="246303.99226300902" y="54328.33015152905" linkRefId="20855" name="Newport Street" isBlocking="false"/>
		<stopFacility id="1180PLA10085.link:18151" x="245591.97486964517" y="54488.1815571069" linkRefId="18151" name="Cumberland Gardens" isBlocking="false"/>
		<stopFacility id="1180PLA10085.link:9883" x="245591.97486964517" y="54488.1815571069" linkRefId="9883" name="Cumberland Gardens" isBlocking="false"/>
		<stopFacility id="1180PLA10088.link:26324" x="245255.99381665865" y="54430.132285238535" linkRefId="26324" name="James Street" isBlocking="false"/>
		<stopFacility id="1180PLA10089.link:26318" x="245377.02330840367" y="54504.48200819999" linkRefId="26318" name="Duke Street" isBlocking="false"/>