<?xml version="1.0" encoding="UTF-8"?>

<vehicleDefinitions xmlns="http://www.matsim.org/files/dtd" xmlns:xsi="http://www.w3.org/2001/XMLSchema-instance" xsi:schemaLocation="http://www.matsim.org/files/dtd http://www.matsim.org/files/dtd/vehicleDefinitions_v2.0.xsd">

	<vehicleType id="Bus">
		<attributes>
			<attribute name="accessTimeInSecondsPerPerson" class="java.lang.Double">0.5</attribute>
			<attribute name="doorOperationMode" class="org.matsim.vehicles.VehicleType$DoorOperationMode">serial</attribute>
			<attribute name="egressTimeInSecondsPerPerson" class="java.lang.Double">0.5</attribute>
		</attributes>
		<capacity seats="70" standingRoomInPersons="0">

		</capacity>
		<length meter="18.0"/>
		<width meter="2.5"/>
		<costInformation>

		</costInformation>
		<passengerCarEquivalents pce="2.8"/>
		<networkMode networkMode="car"/>
		<flowEfficiencyFactor factor="1.0"/>
	</vehicleType>

	<vehicleType id="Ferry">
		<attributes>
			<attribute name="accessTimeInSecondsPerPerson" class="java.lang.Double">0.5</attribute>
			<attribute name="doorOperationMode" class="org.matsim.vehicles.VehicleType$DoorOperationMode">serial</attribute>
			<attribute name="egressTimeInSecondsPerPerson" class="java.lang.Double">0.5</attribute>
		</attributes>
		<capacity seats="250" standingRoomInPersons="0">

		</capacity>
		<length meter="50.0"/>
		<width meter="6.0"/>
		<costInformation>

		</costInformation>
		<passengerCarEquivalents pce="7.1"/>
		<networkMode networkMode="car"/>
		<flowEfficiencyFactor factor="1.0"/>
	</vehicleType>

	<vehicle id="veh_0_bus" type="Bus"/>
	<vehicle id="veh_1000_bus" type="Bus"/>
	<vehicle id="veh_1001_bus" type="Bus"/>
	<vehicle id="veh_1002_bus" type="Bus"/>
	<vehicle id="veh_1003_bus" type="Bus"/>
	<vehicle id="veh_1004_bus" type="Bus"/>
	<vehicle id="veh_1005_bus" type="Bus"/>
	<vehicle id="veh_1006_bus" type="Bus"/>
	<vehicle id="veh_1007_bus" type="Bus"/>
	<vehicle id="veh_1008_bus" type="Bus"/>
	<vehicle id="veh_1009_bus" type="Bus"/>
	<vehicle id="veh_100_bus" type="Bus"/>
	<vehicle id="veh_1010_bus" type="Bus"/>
	<vehicle id="veh_1011_bus" type="Bus"/>
	<vehicle id="veh_1012_bus" type="Bus"/>
	<vehicle id="veh_1013_bus" type="Bus"/>
	<vehicle id="veh_1014_bus" type="Bus"/>
	<vehicle id="veh_1015_bus" type="Bus"/>
	<vehicle id="veh_1016_bus" type="Bus"/>
	<vehicle id="veh_1017_bus" type="Bus"/>
	<vehicle id="veh_1018_bus" type="Bus"/>
	<vehicle id="veh_1019_bus" type="Bus"/>
	<vehicle id="veh_101_bus" type="Bus"/>
	<vehicle id="veh_1020_bus" type="Bus"/>
	<vehicle id="veh_1021_bus" type="Bus"/>
	<vehicle id="veh_1022_bus" type="Bus"/>
	<vehicle id="veh_1023_bus" type="Bus"/>
	<vehicle id="veh_1024_bus" type="Bus"/>
	<vehicle id="veh_1025_bus" type="Bus"/>
	<vehicle id="veh_1026_bus" type="Bus"/>
	<vehicle id="veh_1027_bus" type="Bus"/>
	<vehicle id="veh_1028_bus" type="Bus"/>
	<vehicle id="veh_1029_bus" type="Bus"/>
	<vehicle id="veh_102_bus" type="Bus"/>
	<vehicle id="veh_1030_bus" type="Bus"/>
	<vehicle id="veh_1031_bus" type="Bus"/>
	<vehicle id="veh_1032_bus" type="Bus"/>
	<vehicle id="veh_1033_bus" type="Bus"/>
	<vehicle id="veh_1034_bus" type="Bus"/>
	<vehicle id="veh_1035_bus" type="Bus"/>
	<vehicle id="veh_1036_bus" type="Bus"/>
	<vehicle id="veh_1037_bus" type="Bus"/>
	<vehicle id="veh_1038_bus" type="Bus"/>
	<vehicle id="veh_1039_bus" type="Bus"/>
	<vehicle id="veh_103_bus" type="Bus"/>
	<vehicle id="veh_1040_bus" type="Bus"/>
	<vehicle id="veh_1041_bus" type="Bus"/>
	<vehicle id="veh_1042_bus" type="Bus"/>
	<vehicle id="veh_1043_bus" type="Bus"/>
	<vehicle id="veh_1044_bus" type="Bus"/>
	<vehicle id="veh_1045_bus" type="Bus"/>
	<vehicle id="veh_1046_bus" type="Bus"/>
	<vehicle id="veh_1047_bus" type="Bus"/>
	<vehicle id="veh_1048_bus" type="Bus"/>
	<vehicle id="veh_1049_bus" type="Bus"/>
	<vehicle id="veh_104_bus" type="Bus"/>
	<vehicle id="veh_1050_bus" type="Bus"/>
	<vehicle id="veh_1051_bus" type="Bus"/>
	<vehicle id="veh_1052_bus" type="Bus"/>
	<vehicle id="veh_1053_bus" type="Bus"/>
	<vehicle id="veh_1054_bus" type="Bus"/>
	<vehicle id="veh_1055_bus" type="Bus"/>
	<vehicle id="veh_1056_bus" type="Bus"/>
	<vehicle id="veh_1057_bus" type="Bus"/>
	<vehicle id="veh_1058_bus" type="Bus"/>
	<vehicle id="veh_1059_bus" type="Bus"/>
	<vehicle id="veh_105_bus" type="Bus"/>
	<vehicle id="veh_1060_bus" type="Bus"/>
	<vehicle id="veh_1061_bus" type="Bus"/>
	<vehicle id="veh_1062_bus" type="Bus"/>
	<vehicle id="veh_1063_bus" type="Bus"/>
	<vehicle id="veh_1064_bus" type="Bus"/>
	<vehicle id="veh_1065_bus" type="Bus"/>
	<vehicle id="veh_1066_bus" type="Bus"/>
	<vehicle id="veh_1067_bus" type="Bus"/>
	<vehicle id="veh_1068_bus" type="Bus"/>
	<vehicle id="veh_1069_bus" type="Bus"/>
	<vehicle id="veh_106_bus" type="Bus"/>
	<vehicle id="veh_1070_bus" type="Bus"/>
	<vehicle id="veh_1071_bus" type="Bus"/>
	<vehicle id="veh_1072_bus" type="Bus"/>
	<vehicle id="veh_1073_bus" type="Bus"/>
	<vehicle id="veh_1074_bus" type="Bus"/>
	<vehicle id="veh_1075_bus" type="Bus"/>
	<vehicle id="veh_1076_bus" type="Bus"/>
	<vehicle id="veh_1077_bus" type="Bus"/>
	<vehicle id="veh_1078_bus" type="Bus"/>
	<vehicle id="veh_1079_bus" type="Bus"/>
	<vehicle id="veh_107_bus" type="Bus"/>
	<vehicle id="veh_1080_bus" type="Bus"/>
	<vehicle id="veh_1081_bus" type="Bus"/>
	<vehicle id="veh_1082_bus" type="Bus"/>
	<vehicle id="veh_1083_bus" type="Bus"/>
	<vehicle id="veh_1084_bus" type="Bus"/>
	<vehicle id="veh_1085_bus" type="Bus"/>
	<vehicle id="veh_1086_bus" type="Bus"/>
	<vehicle id="veh_1087_bus" type="Bus"/>
	<vehicle id="veh_1088_bus" type="Bus"/>
	<vehicle id="veh_1089_bus" type="Bus"/>
	<vehicle id="veh_108_bus" type="Bus"/>
	<vehicle id="veh_1090_bus" type="Bus"/>
	<vehicle id="veh_1091_bus" type="Bus"/>
	<vehicle id="veh_1092_bus" type="Bus"/>
	<vehicle id="veh_1093_bus" type="Bus"/>
	<vehicle id="veh_1094_bus" type="Bus"/>
	<vehicle id="veh_1095_bus" type="Bus"/>
	<vehicle id="veh_1096_bus" type="Bus"/>
	<vehicle id="veh_1097_bus" type="Bus"/>
	<vehicle id="veh_1098_bus" type="Bus"/>
	<vehicle id="veh_1099_bus" type="Bus"/>
	<vehicle id="veh_109_bus" type="Bus"/>
	<vehicle id="veh_10_bus" type="Bus"/>
	<vehicle id="veh_1100_bus" type="Bus"/>
	<vehicle id="veh_1101_bus" type="Bus"/>
	<vehicle id="veh_1102_bus" type="Bus"/>
	<vehicle id="veh_1103_bus" type="Bus"/>
	<vehicle id="veh_1104_bus" type="Bus"/>
	<vehicle id="veh_1105_bus" type="Bus"/>
	<vehicle id="veh_1106_bus" type="Bus"/>
	<vehicle id="veh_1107_bus" type="Bus"/>
	<vehicle id="veh_1108_bus" type="Bus"/>
	<vehicle id="veh_1109_bus" type="Bus"/>
	<vehicle id="veh_110_bus" type="Bus"/>
	<vehicle id="veh_1110_bus" type="Bus"/>
	<vehicle id="veh_1111_bus" type="Bus"/>
	<vehicle id="veh_1112_bus" type="Bus"/>
	<vehicle id="veh_1113_bus" type="Bus"/>
	<vehicle id="veh_1114_bus" type="Bus"/>
	<vehicle id="veh_1115_bus" type="Bus"/>
	<vehicle id="veh_1116_bus" type="Bus"/>
	<vehicle id="veh_1117_bus" type="Bus"/>
	<vehicle id="veh_1118_bus" type="Bus"/>
	<vehicle id="veh_1119_bus" type="Bus"/>
	<vehicle id="veh_111_bus" type="Bus"/>
	<vehicle id="veh_1120_bus" type="Bus"/>
	<vehicle id="veh_1121_bus" type="Bus"/>
	<vehicle id="veh_1122_bus" type="Bus"/>
	<vehicle id="veh_1123_bus" type="Bus"/>
	<vehicle id="veh_1124_bus" type="Bus"/>
	<vehicle id="veh_1125_bus" type="Bus"/>
	<vehicle id="veh_1126_bus" type="Bus"/>
	<vehicle id="veh_1127_bus" type="Bus"/>
	<vehicle id="veh_1128_bus" type="Bus"/>
	<vehicle id="veh_1129_bus" type="Bus"/>
	<vehicle id="veh_112_bus" type="Bus"/>
	<vehicle id="veh_1130_bus" type="Bus"/>
	<vehicle id="veh_1131_bus" type="Bus"/>
	<vehicle id="veh_1132_bus" type="Bus"/>
	<vehicle id="veh_1133_bus" type="Bus"/>
	<vehicle id="veh_1134_bus" type="Bus"/>
	<vehicle id="veh_1135_bus" type="Bus"/>
	<vehicle id="veh_1136_bus" type="Bus"/>
	<vehicle id="veh_1137_bus" type="Bus"/>
	<vehicle id="veh_1138_bus" type="Bus"/>
	<vehicle id="veh_1139_bus" type="Bus"/>
	<vehicle id="veh_113_bus" type="Bus"/>
	<vehicle id="veh_1140_bus" type="Bus"/>
	<vehicle id="veh_1141_bus" type="Bus"/>
	<vehicle id="veh_1142_bus" type="Bus"/>
	<vehicle id="veh_1143_bus" type="Bus"/>
	<vehicle id="veh_1144_bus" type="Bus"/>
	<vehicle id="veh_1145_bus" type="Bus"/>
	<vehicle id="veh_1146_bus" type="Bus"/>
	<vehicle id="veh_1147_bus" type="Bus"/>
	<vehicle id="veh_1148_bus" type="Bus"/>
	<vehicle id="veh_1149_bus" type="Bus"/>
	<vehicle id="veh_114_bus" type="Bus"/>
	<vehicle id="veh_1150_bus" type="Bus"/>
	<vehicle id="veh_1151_bus" type="Bus"/>
	<vehicle id="veh_1152_bus" type="Bus"/>
	<vehicle id="veh_1153_bus" type="Bus"/>
	<vehicle id="veh_1154_bus" type="Bus"/>
	<vehicle id="veh_1155_bus" type="Bus"/>
	<vehicle id="veh_1156_bus" type="Bus"/>
	<vehicle id="veh_1157_bus" type="Bus"/>
	<vehicle id="veh_1158_bus" type="Bus"/>
	<vehicle id="veh_1159_bus" type="Bus"/>
	<vehicle id="veh_115_bus" type="Bus"/>
	<vehicle id="veh_1160_bus" type="Bus"/>
	<vehicle id="veh_1161_bus" type="Bus"/>
	<vehicle id="veh_1162_bus" type="Bus"/>
	<vehicle id="veh_1163_bus" type="Bus"/>
	<vehicle id="veh_1164_bus" type="Bus"/>
	<vehicle id="veh_1165_bus" type="Bus"/>
	<vehicle id="veh_1166_bus" type="Bus"/>
	<vehicle id="veh_1167_bus" type="Bus"/>
	<vehicle id="veh_1168_bus" type="Bus"/>
	<vehicle id="veh_1169_bus" type="Bus"/>
	<vehicle id="veh_116_ferry" type="Ferry"/>
	<vehicle id="veh_1170_bus" type="Bus"/>
	<vehicle id="veh_1171_bus" type="Bus"/>
	<vehicle id="veh_1172_bus" type="Bus"/>
	<vehicle id="veh_1173_bus" type="Bus"/>
	<vehicle id="veh_1174_bus" type="Bus"/>
	<vehicle id="veh_1175_bus" type="Bus"/>
	<vehicle id="veh_1176_bus" type="Bus"/>
	<vehicle id="veh_1177_bus" type="Bus"/>
	<vehicle id="veh_1178_bus" type="Bus"/>
	<vehicle id="veh_1179_bus" type="Bus"/>
	<vehicle id="veh_117_ferry" type="Ferry"/>
	<vehicle id="veh_1180_bus" type="Bus"/>
	<vehicle id="veh_1181_bus" type="Bus"/>
	<vehicle id="veh_1182_ferry" type="Ferry"/>
	<vehicle id="veh_1183_ferry" type="Ferry"/>
	<vehicle id="veh_1184_ferry" type="Ferry"/>
	<vehicle id="veh_1185_ferry" type="Ferry"/>
	<vehicle id="veh_1186_ferry" type="Ferry"/>
	<vehicle id="veh_1187_ferry" type="Ferry"/>
	<vehicle id="veh_1188_ferry" type="Ferry"/>
	<vehicle id="veh_1189_ferry" type="Ferry"/>
	<vehicle id="veh_118_ferry" type="Ferry"/>
	<vehicle id="veh_1190_ferry" type="Ferry"/>
	<vehicle id="veh_1191_ferry" type="Ferry"/>
	<vehicle id="veh_1192_ferry" type="Ferry"/>
	<vehicle id="veh_1193_ferry" type="Ferry"/>
	<vehicle id="veh_1194_ferry" type="Ferry"/>
	<vehicle id="veh_1195_ferry" type="Ferry"/>
	<vehicle id="veh_1196_ferry" type="Ferry"/>
	<vehicle id="veh_1197_ferry" type="Ferry"/>
	<vehicle id="veh_1198_ferry" type="Ferry"/>
	<vehicle id="veh_1199_ferry" type="Ferry"/>
	<vehicle id="veh_119_ferry" type="Ferry"/>
	<vehicle id="veh_11_bus" type="Bus"/>
	<vehicle id="veh_1200_ferry" type="Ferry"/>
	<vehicle id="veh_1201_ferry" type="Ferry"/>
	<vehicle id="veh_1202_ferry" type="Ferry"/>
	<vehicle id="veh_1203_ferry" type="Ferry"/>
	<vehicle id="veh_1204_ferry" type="Ferry"/>
	<vehicle id="veh_1205_ferry" type="Ferry"/>
	<vehicle id="veh_1206_ferry" type="Ferry"/>
	<vehicle id="veh_1207_ferry" type="Ferry"/>
	<vehicle id="veh_1208_ferry" type="Ferry"/>
	<vehicle id="veh_1209_ferry" type="Ferry"/>
	<vehicle id="veh_120_ferry" type="Ferry"/>
	<vehicle id="veh_1210_ferry" type="Ferry"/>
	<vehicle id="veh_1211_ferry" type="Ferry"/>
	<vehicle id="veh_1212_ferry" type="Ferry"/>
	<vehicle id="veh_1213_ferry" type="Ferry"/>
	<vehicle id="veh_1214_ferry" type="Ferry"/>
	<vehicle id="veh_1215_ferry" type="Ferry"/>
	<vehicle id="veh_1216_ferry" type="Ferry"/>
	<vehicle id="veh_1217_ferry" type="Ferry"/>
	<vehicle id="veh_1218_ferry" type="Ferry"/>
	<vehicle id="veh_1219_ferry" type="Ferry"/>
	<vehicle id="veh_121_ferry" type="Ferry"/>
	<vehicle id="veh_1220_ferry" type="Ferry"/>
	<vehicle id="veh_1221_ferry" type="Ferry"/>
	<vehicle id="veh_1222_ferry" type="Ferry"/>
	<vehicle id="veh_1223_ferry" type="Ferry"/>
	<vehicle id="veh_1224_ferry" type="Ferry"/>
	<vehicle id="veh_1225_ferry" type="Ferry"/>
	<vehicle id="veh_1226_ferry" type="Ferry"/>
	<vehicle id="veh_1227_ferry" type="Ferry"/>
	<vehicle id="veh_1228_ferry" type="Ferry"/>
	<vehicle id="veh_1229_ferry" type="Ferry"/>
	<vehicle id="veh_122_ferry" type="Ferry"/>
	<vehicle id="veh_1230_ferry" type="Ferry"/>
	<vehicle id="veh_1231_ferry" type="Ferry"/>
	<vehicle id="veh_1232_ferry" type="Ferry"/>
	<vehicle id="veh_1233_ferry" type="Ferry"/>
	<vehicle id="veh_1234_ferry" type="Ferry"/>
	<vehicle id="veh_1235_ferry" type="Ferry"/>
	<vehicle id="veh_1236_ferry" type="Ferry"/>
	<vehicle id="veh_1237_ferry" type="Ferry"/>
	<vehicle id="veh_1238_ferry" type="Ferry"/>
	<vehicle id="veh_1239_ferry" type="Ferry"/>
	<vehicle id="veh_123_ferry" type="Ferry"/>
	<vehicle id="veh_1240_ferry" type="Ferry"/>
	<vehicle id="veh_1241_ferry" type="Ferry"/>
	<vehicle id="veh_1242_ferry" type="Ferry"/>
	<vehicle id="veh_1243_ferry" type="Ferry"/>
	<vehicle id="veh_1244_ferry" type="Ferry"/>
	<vehicle id="veh_1245_ferry" type="Ferry"/>
	<vehicle id="veh_1246_ferry" type="Ferry"/>
	<vehicle id="veh_1247_ferry" type="Ferry"/>
	<vehicle id="veh_1248_ferry" type="Ferry"/>
	<vehicle id="veh_1249_ferry" type="Ferry"/>
	<vehicle id="veh_124_ferry" type="Ferry"/>
	<vehicle id="veh_1250_ferry" type="Ferry"/>
	<vehicle id="veh_1251_ferry" type="Ferry"/>
	<vehicle id="veh_1252_ferry" type="Ferry"/>
	<vehicle id="veh_1253_ferry" type="Ferry"/>
	<vehicle id="veh_1254_ferry" type="Ferry"/>
	<vehicle id="veh_1255_ferry" type="Ferry"/>
	<vehicle id="veh_1256_ferry" type="Ferry"/>
	<vehicle id="veh_1257_ferry" type="Ferry"/>
	<vehicle id="veh_1258_ferry" type="Ferry"/>
	<vehicle id="veh_1259_ferry" type="Ferry"/>
	<vehicle id="veh_125_ferry" type="Ferry"/>
	<vehicle id="veh_1260_ferry" type="Ferry"/>
	<vehicle id="veh_1261_ferry" type="Ferry"/>
	<vehicle id="veh_1262_ferry" type="Ferry"/>
	<vehicle id="veh_1263_ferry" type="Ferry"/>
	<vehicle id="veh_1264_ferry" type="Ferry"/>
	<vehicle id="veh_1265_ferry" type="Ferry"/>
	<vehicle id="veh_1266_ferry" type="Ferry"/>
	<vehicle id="veh_1267_ferry" type="Ferry"/>
	<vehicle id="veh_1268_ferry" type="Ferry"/>
	<vehicle id="veh_1269_ferry" type="Ferry"/>
	<vehicle id="veh_126_ferry" type="Ferry"/>
	<vehicle id="veh_1270_ferry" type="Ferry"/>
	<vehicle id="veh_1271_ferry" type="Ferry"/>
	<vehicle id="veh_1272_ferry" type="Ferry"/>
	<vehicle id="veh_1273_ferry" type="Ferry"/>
	<vehicle id="veh_1274_ferry" type="Ferry"/>
	<vehicle id="veh_1275_ferry" type="Ferry"/>
	<vehicle id="veh_1276_ferry" type="Ferry"/>
	<vehicle id="veh_1277_ferry" type="Ferry"/>
	<vehicle id="veh_1278_ferry" type="Ferry"/>
	<vehicle id="veh_1279_ferry" type="Ferry"/>
	<vehicle id="veh_127_ferry" type="Ferry"/>
	<vehicle id="veh_1280_ferry" type="Ferry"/>
	<vehicle id="veh_1281_ferry" type="Ferry"/>
	<vehicle id="veh_1282_ferry" type="Ferry"/>
	<vehicle id="veh_1283_ferry" type="Ferry"/>
	<vehicle id="veh_1284_ferry" type="Ferry"/>
	<vehicle id="veh_1285_ferry" type="Ferry"/>
	<vehicle id="veh_1286_ferry" type="Ferry"/>
	<vehicle id="veh_1287_ferry" type="Ferry"/>
	<vehicle id="veh_1288_ferry" type="Ferry"/>
	<vehicle id="veh_1289_ferry" type="Ferry"/>
	<vehicle id="veh_128_ferry" type="Ferry"/>
	<vehicle id="veh_1290_ferry" type="Ferry"/>
	<vehicle id="veh_1291_ferry" type="Ferry"/>
	<vehicle id="veh_1292_ferry" type="Ferry"/>
	<vehicle id="veh_1293_ferry" type="Ferry"/>
	<vehicle id="veh_1294_ferry" type="Ferry"/>
	<vehicle id="veh_1295_ferry" type="Ferry"/>
	<vehicle id="veh_1296_ferry" type="Ferry"/>
	<vehicle id="veh_1297_ferry" type="Ferry"/>
	<vehicle id="veh_1298_ferry" type="Ferry"/>
	<vehicle id="veh_1299_ferry" type="Ferry"/>
	<vehicle id="veh_129_ferry" type="Ferry"/>
	<vehicle id="veh_12_bus" type="Bus"/>
	<vehicle id="veh_1300_ferry" type="Ferry"/>
	<vehicle id="veh_1301_ferry" type="Ferry"/>
	<vehicle id="veh_1302_ferry" type="Ferry"/>
	<vehicle id="veh_1303_ferry" type="Ferry"/>
	<vehicle id="veh_1304_ferry" type="Ferry"/>
	<vehicle id="veh_1305_ferry" type="Ferry"/>
	<vehicle id="veh_1306_ferry" type="Ferry"/>
	<vehicle id="veh_1307_ferry" type="Ferry"/>
	<vehicle id="veh_1308_ferry" type="Ferry"/>
	<vehicle id="veh_1309_ferry" type="Ferry"/>
	<vehicle id="veh_130_ferry" type="Ferry"/>
	<vehicle id="veh_1310_ferry" type="Ferry"/>
	<vehicle id="veh_1311_ferry" type="Ferry"/>
	<vehicle id="veh_1312_ferry" type="Ferry"/>
	<vehicle id="veh_1313_ferry" type="Ferry"/>
	<vehicle id="veh_1314_ferry" type="Ferry"/>
	<vehicle id="veh_1315_ferry" type="Ferry"/>
	<vehicle id="veh_1316_ferry" type="Ferry"/>
	<vehicle id="veh_1317_ferry" type="Ferry"/>
	<vehicle id="veh_1318_ferry" type="Ferry"/>
	<vehicle id="veh_1319_ferry" type="Ferry"/>
	<vehicle id="veh_131_ferry" type="Ferry"/>
	<vehicle id="veh_1320_ferry" type="Ferry"/>
	<vehicle id="veh_1321_ferry" type="Ferry"/>
	<vehicle id="veh_1322_ferry" type="Ferry"/>
	<vehicle id="veh_1323_ferry" type="Ferry"/>
	<vehicle id="veh_1324_ferry" type="Ferry"/>
	<vehicle id="veh_1325_ferry" type="Ferry"/>
	<vehicle id="veh_1326_ferry" type="Ferry"/>
	<vehicle id="veh_1327_ferry" type="Ferry"/>
	<vehicle id="veh_1328_ferry" type="Ferry"/>
	<vehicle id="veh_1329_ferry" type="Ferry"/>
	<vehicle id="veh_132_ferry" type="Ferry"/>
	<vehicle id="veh_1330_ferry" type="Ferry"/>
	<vehicle id="veh_1331_ferry" type="Ferry"/>
	<vehicle id="veh_1332_ferry" type="Ferry"/>
	<vehicle id="veh_1333_ferry" type="Ferry"/>
	<vehicle id="veh_1334_ferry" type="Ferry"/>
	<vehicle id="veh_1335_ferry" type="Ferry"/>
	<vehicle id="veh_1336_ferry" type="Ferry"/>
	<vehicle id="veh_1337_ferry" type="Ferry"/>
	<vehicle id="veh_1338_ferry" type="Ferry"/>
	<vehicle id="veh_1339_ferry" type="Ferry"/>
	<vehicle id="veh_133_ferry" type="Ferry"/>
	<vehicle id="veh_1340_ferry" type="Ferry"/>
	<vehicle id="veh_1341_ferry" type="Ferry"/>
	<vehicle id="veh_1342_ferry" type="Ferry"/>
	<vehicle id="veh_1343_ferry" type="Ferry"/>
	<vehicle id="veh_1344_ferry" type="Ferry"/>
	<vehicle id="veh_1345_ferry" type="Ferry"/>
	<vehicle id="veh_1346_ferry" type="Ferry"/>
	<vehicle id="veh_1347_ferry" type="Ferry"/>
	<vehicle id="veh_1348_ferry" type="Ferry"/>
	<vehicle id="veh_1349_ferry" type="Ferry"/>
	<vehicle id="veh_134_ferry" type="Ferry"/>
	<vehicle id="veh_1350_ferry" type="Ferry"/>
	<vehicle id="veh_1351_ferry" type="Ferry"/>
	<vehicle id="veh_1352_ferry" type="Ferry"/>
	<vehicle id="veh_1353_ferry" type="Ferry"/>
	<vehicle id="veh_1354_ferry" type="Ferry"/>
	<vehicle id="veh_1355_ferry" type="Ferry"/>
	<vehicle id="veh_1356_ferry" type="Ferry"/>
	<vehicle id="veh_1357_ferry" type="Ferry"/>
	<vehicle id="veh_1358_ferry" type="Ferry"/>
	<vehicle id="veh_1359_ferry" type="Ferry"/>
	<vehicle id="veh_135_ferry" type="Ferry"/>
	<vehicle id="veh_1360_ferry" type="Ferry"/>
	<vehicle id="veh_1361_ferry" type="Ferry"/>
	<vehicle id="veh_1362_ferry" type="Ferry"/>
	<vehicle id="veh_1363_ferry" type="Ferry"/>
	<vehicle id="veh_1364_ferry" type="Ferry"/>
	<vehicle id="veh_1365_ferry" type="Ferry"/>
	<vehicle id="veh_1366_ferry" type="Ferry"/>
	<vehicle id="veh_1367_ferry" type="Ferry"/>
	<vehicle id="veh_1368_ferry" type="Ferry"/>
	<vehicle id="veh_1369_ferry" type="Ferry"/>
	<vehicle id="veh_136_ferry" type="Ferry"/>
	<vehicle id="veh_1370_ferry" type="Ferry"/>
	<vehicle id="veh_1371_ferry" type="Ferry"/>
	<vehicle id="veh_1372_ferry" type="Ferry"/>
	<vehicle id="veh_1373_ferry" type="Ferry"/>
	<vehicle id="veh_1374_ferry" type="Ferry"/>
	<vehicle id="veh_1375_ferry" type="Ferry"/>
	<vehicle id="veh_1376_ferry" type="Ferry"/>
	<vehicle id="veh_1377_ferry" type="Ferry"/>
	<vehicle id="veh_1378_ferry" type="Ferry"/>
	<vehicle id="veh_1379_ferry" type="Ferry"/>
	<vehicle id="veh_137_ferry" type="Ferry"/>
	<vehicle id="veh_1380_ferry" type="Ferry"/>
	<vehicle id="veh_1381_ferry" type="Ferry"/>
	<vehicle id="veh_1382_ferry" type="Ferry"/>
	<vehicle id="veh_1383_ferry" type="Ferry"/>
	<vehicle id="veh_1384_ferry" type="Ferry"/>
	<vehicle id="veh_1385_bus" type="Bus"/>
	<vehicle id="veh_1386_bus" type="Bus"/>
	<vehicle id="veh_1387_bus" type="Bus"/>
	<vehicle id="veh_1388_bus" type="Bus"/>
	<vehicle id="veh_1389_bus" type="Bus"/>
	<vehicle id="veh_138_ferry" type="Ferry"/>
	<vehicle id="veh_1390_bus" type="Bus"/>
	<vehicle id="veh_1391_bus" type="Bus"/>
	<vehicle id="veh_1392_bus" type="Bus"/>
	<vehicle id="veh_1393_bus" type="Bus"/>
	<vehicle id="veh_1394_bus" type="Bus"/>
	<vehicle id="veh_1395_bus" type="Bus"/>
	<vehicle id="veh_1396_bus" type="Bus"/>
	<vehicle id="veh_1397_bus" type="Bus"/>
	<vehicle id="veh_1398_bus" type="Bus"/>
	<vehicle id="veh_1399_bus" type="Bus"/>
	<vehicle id="veh_139_ferry" type="Ferry"/>
	<vehicle id="veh_13_bus" type="Bus"/>
	<vehicle id="veh_1400_bus" type="Bus"/>
	<vehicle id="veh_1401_bus" type="Bus"/>
	<vehicle id="veh_1402_bus" type="Bus"/>
	<vehicle id="veh_1403_bus" type="Bus"/>
	<vehicle id="veh_1404_bus" type="Bus"/>
	<vehicle id="veh_1405_bus" type="Bus"/>
	<vehicle id="veh_1406_bus" type="Bus"/>
	<vehicle id="veh_1407_bus" type="Bus"/>
	<vehicle id="veh_1408_bus" type="Bus"/>
	<vehicle id="veh_1409_bus" type="Bus"/>
	<vehicle id="veh_140_ferry" type="Ferry"/>
	<vehicle id="veh_1410_bus" type="Bus"/>
	<vehicle id="veh_1411_bus" type="Bus"/>
	<vehicle id="veh_1412_bus" type="Bus"/>
	<vehicle id="veh_1413_bus" type="Bus"/>
	<vehicle id="veh_1414_bus" type="Bus"/>
	<vehicle id="veh_1415_bus" type="Bus"/>
	<vehicle id="veh_1416_bus" type="Bus"/>
	<vehicle id="veh_1417_bus" type="Bus"/>
	<vehicle id="veh_1418_bus" type="Bus"/>
	<vehicle id="veh_1419_bus" type="Bus"/>
	<vehicle id="veh_141_ferry" type="Ferry"/>
	<vehicle id="veh_1420_bus" type="Bus"/>
	<vehicle id="veh_1421_bus" type="Bus"/>
	<vehicle id="veh_1422_bus" type="Bus"/>
	<vehicle id="veh_1423_bus" type="Bus"/>
	<vehicle id="veh_1424_bus" type="Bus"/>
	<vehicle id="veh_1425_bus" type="Bus"/>
	<vehicle id="veh_1426_bus" type="Bus"/>
	<vehicle id="veh_1427_bus" type="Bus"/>
	<vehicle id="veh_1428_bus" type="Bus"/>
	<vehicle id="veh_1429_bus" type="Bus"/>
	<vehicle id="veh_142_ferry" type="Ferry"/>
	<vehicle id="veh_1430_bus" type="Bus"/>
	<vehicle id="veh_1431_bus" type="Bus"/>
	<vehicle id="veh_1432_bus" type="Bus"/>
	<vehicle id="veh_1433_bus" type="Bus"/>
	<vehicle id="veh_1434_bus" type="Bus"/>
	<vehicle id="veh_1435_bus" type="Bus"/>
	<vehicle id="veh_1436_bus" type="Bus"/>
	<vehicle id="veh_1437_bus" type="Bus"/>
	<vehicle id="veh_1438_bus" type="Bus"/>
	<vehicle id="veh_1439_bus" type="Bus"/>
	<vehicle id="veh_143_ferry" type="Ferry"/>
	<vehicle id="veh_1440_bus" type="Bus"/>
	<vehicle id="veh_1441_bus" type="Bus"/>
	<vehicle id="veh_1442_bus" type="Bus"/>
	<vehicle id="veh_1443_bus" type="Bus"/>
	<vehicle id="veh_1444_bus" type="Bus"/>
	<vehicle id="veh_1445_bus" type="Bus"/>
	<vehicle id="veh_1446_bus" type="Bus"/>
	<vehicle id="veh_1447_bus" type="Bus"/>
	<vehicle id="veh_1448_bus" type="Bus"/>
	<vehicle id="veh_1449_bus" type="Bus"/>
	<vehicle id="veh_144_ferry" type="Ferry"/>
	<vehicle id="veh_1450_bus" type="Bus"/>
	<vehicle id="veh_1451_bus" type="Bus"/>
	<vehicle id="veh_1452_bus" type="Bus"/>
	<vehicle id="veh_1453_bus" type="Bus"/>
	<vehicle id="veh_1454_bus" type="Bus"/>
	<vehicle id="veh_1455_bus" type="Bus"/>
	<vehicle id="veh_1456_bus" type="Bus"/>
	<vehicle id="veh_1457_bus" type="Bus"/>
	<vehicle id="veh_1458_bus" type="Bus"/>
	<vehicle id="veh_1459_bus" type="Bus"/>
	<vehicle id="veh_145_ferry" type="Ferry"/>
	<vehicle id="veh_1460_bus" type="Bus"/>
	<vehicle id="veh_1461_bus" type="Bus"/>
	<vehicle id="veh_1462_bus" type="Bus"/>
	<vehicle id="veh_1463_bus" type="Bus"/>
	<vehicle id="veh_1464_bus" type="Bus"/>
	<vehicle id="veh_1465_bus" type="Bus"/>
	<vehicle id="veh_1466_bus" type="Bus"/>
	<vehicle id="veh_1467_bus" type="Bus"/>
	<vehicle id="veh_1468_bus" type="Bus"/>
	<vehicle id="veh_1469_bus" type="Bus"/>
	<vehicle id="veh_146_ferry" type="Ferry"/>
	<vehicle id="veh_1470_bus" type="Bus"/>
	<vehicle id="veh_1471_bus" type="Bus"/>
	<vehicle id="veh_1472_bus" type="Bus"/>
	<vehicle id="veh_1473_bus" type="Bus"/>
	<vehicle id="veh_1474_bus" type="Bus"/>
	<vehicle id="veh_1475_bus" type="Bus"/>
	<vehicle id="veh_1476_bus" type="Bus"/>
	<vehicle id="veh_1477_bus" type="Bus"/>
	<vehicle id="veh_1478_bus" type="Bus"/>
	<vehicle id="veh_1479_bus" type="Bus"/>
	<vehicle id="veh_147_ferry" type="Ferry"/>
	<vehicle id="veh_1480_bus" type="Bus"/>
	<vehicle id="veh_1481_bus" type="Bus"/>
	<vehicle id="veh_1482_bus" type="Bus"/>
	<vehicle id="veh_1483_bus" type="Bus"/>
	<vehicle id="veh_1484_bus" type="Bus"/>
	<vehicle id="veh_1485_bus" type="Bus"/>
	<vehicle id="veh_1486_bus" type="Bus"/>
	<vehicle id="veh_1487_bus" type="Bus"/>
	<vehicle id="veh_1488_bus" type="Bus"/>
	<vehicle id="veh_1489_bus" type="Bus"/>
	<vehicle id="veh_148_ferry" type="Ferry"/>
	<vehicle id="veh_1490_bus" type="Bus"/>
	<vehicle id="veh_1491_bus" type="Bus"/>
	<vehicle id="veh_1492_bus" type="Bus"/>
	<vehicle id="veh_1493_bus" type="Bus"/>
	<vehicle id="veh_1494_bus" type="Bus"/>
	<vehicle id="veh_1495_bus" type="Bus"/>
	<vehicle id="veh_1496_bus" type="Bus"/>
	<vehicle id="veh_1497_bus" type="Bus"/>
	<vehicle id="veh_1498_bus" type="Bus"/>
	<vehicle id="veh_1499_bus" type="Bus"/>
	<vehicle id="veh_149_ferry" type="Ferry"/>
	<vehicle id="veh_14_bus" type="Bus"/>
	<vehicle id="veh_1500_bus" type="Bus"/>
	<vehicle id="veh_1501_bus" type="Bus"/>
	<vehicle id="veh_1502_bus" type="Bus"/>
	<vehicle id="veh_1503_bus" type="Bus"/>
	<vehicle id="veh_1504_bus" type="Bus"/>
	<vehicle id="veh_1505_bus" type="Bus"/>
	<vehicle id="veh_1506_bus" type="Bus"/>
	<vehicle id="veh_1507_bus" type="Bus"/>
	<vehicle id="veh_1508_bus" type="Bus"/>
	<vehicle id="veh_1509_bus" type="Bus"/>
	<vehicle id="veh_150_ferry" type="Ferry"/>
	<vehicle id="veh_1510_bus" type="Bus"/>
	<vehicle id="veh_1511_bus" type="Bus"/>
	<vehicle id="veh_1512_bus" type="Bus"/>
	<vehicle id="veh_1513_bus" type="Bus"/>
	<vehicle id="veh_1514_bus" type="Bus"/>
	<vehicle id="veh_1515_bus" type="Bus"/>
	<vehicle id="veh_1516_bus" type="Bus"/>
	<vehicle id="veh_1517_bus" type="Bus"/>
	<vehicle id="veh_1518_bus" type="Bus"/>
	<vehicle id="veh_1519_bus" type="Bus"/>
	<vehicle id="veh_151_ferry" type="Ferry"/>
	<vehicle id="veh_1520_bus" type="Bus"/>
	<vehicle id="veh_1521_bus" type="Bus"/>
	<vehicle id="veh_1522_bus" type="Bus"/>
	<vehicle id="veh_1523_bus" type="Bus"/>
	<vehicle id="veh_1524_bus" type="Bus"/>
	<vehicle id="veh_1525_bus" type="Bus"/>
	<vehicle id="veh_1526_bus" type="Bus"/>
	<vehicle id="veh_1527_bus" type="Bus"/>
	<vehicle id="veh_1528_bus" type="Bus"/>
	<vehicle id="veh_1529_bus" type="Bus"/>
	<vehicle id="veh_152_ferry" type="Ferry"/>
	<vehicle id="veh_1530_bus" type="Bus"/>
	<vehicle id="veh_1531_bus" type="Bus"/>
	<vehicle id="veh_1532_bus" type="Bus"/>
	<vehicle id="veh_1533_bus" type="Bus"/>
	<vehicle id="veh_1534_bus" type="Bus"/>
	<vehicle id="veh_1535_bus" type="Bus"/>
	<vehicle id="veh_1536_bus" type="Bus"/>
	<vehicle id="veh_1537_bus" type="Bus"/>
	<vehicle id="veh_1538_bus" type="Bus"/>
	<vehicle id="veh_1539_bus" type="Bus"/>
	<vehicle id="veh_153_ferry" type="Ferry"/>
	<vehicle id="veh_1540_bus" type="Bus"/>
	<vehicle id="veh_1541_bus" type="Bus"/>
	<vehicle id="veh_1542_bus" type="Bus"/>
	<vehicle id="veh_1543_bus" type="Bus"/>
	<vehicle id="veh_1544_bus" type="Bus"/>
	<vehicle id="veh_1545_bus" type="Bus"/>
	<vehicle id="veh_1546_bus" type="Bus"/>
	<vehicle id="veh_1547_bus" type="Bus"/>
	<vehicle id="veh_1548_bus" type="Bus"/>
	<vehicle id="veh_1549_bus" type="Bus"/>
	<vehicle id="veh_154_ferry" type="Ferry"/>
	<vehicle id="veh_1550_bus" type="Bus"/>
	<vehicle id="veh_1551_bus" type="Bus"/>
	<vehicle id="veh_1552_bus" type="Bus"/>
	<vehicle id="veh_1553_bus" type="Bus"/>
	<vehicle id="veh_1554_bus" type="Bus"/>
	<vehicle id="veh_1555_bus" type="Bus"/>
	<vehicle id="veh_1556_bus" type="Bus"/>
	<vehicle id="veh_1557_bus" type="Bus"/>
	<vehicle id="veh_1558_bus" type="Bus"/>
	<vehicle id="veh_1559_bus" type="Bus"/>
	<vehicle id="veh_155_ferry" type="Ferry"/>
	<vehicle id="veh_1560_bus" type="Bus"/>
	<vehicle id="veh_1561_bus" type="Bus"/>
	<vehicle id="veh_1562_bus" type="Bus"/>
	<vehicle id="veh_1563_bus" type="Bus"/>
	<vehicle id="veh_1564_bus" type="Bus"/>
	<vehicle id="veh_1565_bus" type="Bus"/>
	<vehicle id="veh_1566_bus" type="Bus"/>
	<vehicle id="veh_1567_bus" type="Bus"/>
	<vehicle id="veh_1568_bus" type="Bus"/>
	<vehicle id="veh_1569_bus" type="Bus"/>
	<vehicle id="veh_156_ferry" type="Ferry"/>
	<vehicle id="veh_1570_bus" type="Bus"/>
	<vehicle id="veh_1571_bus" type="Bus"/>
	<vehicle id="veh_1572_bus" type="Bus"/>
	<vehicle id="veh_1573_bus" type="Bus"/>
	<vehicle id="veh_1574_bus" type="Bus"/>
	<vehicle id="veh_1575_bus" type="Bus"/>
	<vehicle id="veh_1576_bus" type="Bus"/>
	<vehicle id="veh_1577_bus" type="Bus"/>
	<vehicle id="veh_1578_bus" type="Bus"/>
	<vehicle id="veh_1579_bus" type="Bus"/>
	<vehicle id="veh_157_ferry" type="Ferry"/>
	<vehicle id="veh_1580_bus" type="Bus"/>
	<vehicle id="veh_1581_bus" type="Bus"/>
	<vehicle id="veh_1582_bus" type="Bus"/>
	<vehicle id="veh_1583_bus" type="Bus"/>
	<vehicle id="veh_1584_bus" type="Bus"/>
	<vehicle id="veh_1585_bus" type="Bus"/>
	<vehicle id="veh_1586_bus" type="Bus"/>
	<vehicle id="veh_1587_bus" type="Bus"/>
	<vehicle id="veh_1588_bus" type="Bus"/>
	<vehicle id="veh_1589_bus" type="Bus"/>
	<vehicle id="veh_158_ferry" type="Ferry"/>
	<vehicle id="veh_1590_bus" type="Bus"/>
	<vehicle id="veh_1591_bus" type="Bus"/>
	<vehicle id="veh_1592_bus" type="Bus"/>
	<vehicle id="veh_1593_bus" type="Bus"/>
	<vehicle id="veh_1594_bus" type="Bus"/>
	<vehicle id="veh_1595_bus" type="Bus"/>
	<vehicle id="veh_1596_bus" type="Bus"/>
	<vehicle id="veh_1597_bus" type="Bus"/>
	<vehicle id="veh_1598_bus" type="Bus"/>
	<vehicle id="veh_1599_bus" type="Bus"/>
	<vehicle id="veh_159_ferry" type="Ferry"/>
	<vehicle id="veh_15_bus" type="Bus"/>
	<vehicle id="veh_1600_bus" type="Bus"/>
	<vehicle id="veh_1601_bus" type="Bus"/>
	<vehicle id="veh_1602_bus" type="Bus"/>
	<vehicle id="veh_1603_bus" type="Bus"/>